
     RDKit          3D

 29 29  0  0  0  0  0  0  0  0999 V2000
    3.9195   -1.8937   -0.5378 O   0  0  0  0  0  0  0  0  0  0  0  0
    2.9028   -1.8876    0.5481 P   0  0  0  0  0  5  0  0  0  0  0  0
    2.2576   -3.3200    0.8292 O   0  0  0  0  0  0  0  0  0  0  0  0
    3.4704   -1.5006    1.9868 O   0  0  0  0  0  0  0  0  0  0  0  0
    1.6248   -0.9502    0.3519 O   0  0  0  0  0  0  0  0  0  0  0  0
    1.8781    0.4272    0.1071 C   0  0  0  0  0  0  0  0  0  0  0  0
    0.5697    1.1946   -0.0539 C   0  0  1  0  0  0  0  0  0  0  0  0
   -0.1710    0.7006   -1.1891 O   0  0  0  0  0  0  0  0  0  0  0  0
   -1.5717    0.9114   -0.9272 C   0  0  0  0  0  0  0  0  0  0  0  0
   -2.0183    1.8812   -1.8696 O   0  0  0  0  0  0  0  0  0  0  0  0
   -2.3428   -0.4075   -1.1498 C   0  0  0  0  0  0  0  0  0  0  0  0
   -2.1825   -1.3208   -0.0600 O   0  0  0  0  0  0  0  0  0  0  0  0
   -1.6889    1.4828    0.5057 C   0  0  1  0  0  0  0  0  0  0  0  0
   -2.7869    1.0097    1.2920 O   0  0  0  0  0  0  0  0  0  0  0  0
   -0.3685    1.0699    1.1333 C   0  0  2  0  0  0  0  0  0  0  0  0
   -0.0059    1.9257    2.2114 O   0  0  0  0  0  0  0  0  0  0  0  0
    1.9499   -3.7271    0.0000 H   0  0  0  0  0  0  0  0  0  0  0  0
    4.2657   -2.0193    2.1993 H   0  0  0  0  0  0  0  0  0  0  0  0
    2.4648    0.5058   -0.8145 H   0  0  0  0  0  0  0  0  0  0  0  0
    2.4611    0.8400    0.9369 H   0  0  0  0  0  0  0  0  0  0  0  0
    0.8103    2.2485   -0.2462 H   0  0  0  0  0  0  0  0  0  0  0  0
   -1.7759    1.5196   -2.7384 H   0  0  0  0  0  0  0  0  0  0  0  0
   -3.4136   -0.2097   -1.2685 H   0  0  0  0  0  0  0  0  0  0  0  0
   -1.9869   -0.9003   -2.0617 H   0  0  0  0  0  0  0  0  0  0  0  0
   -2.5367   -2.1776   -0.3610 H   0  0  0  0  0  0  0  0  0  0  0  0
   -1.7763    2.5760    0.4828 H   0  0  0  0  0  0  0  0  0  0  0  0
   -2.7484    0.0302    1.2558 H   0  0  0  0  0  0  0  0  0  0  0  0
   -0.4241    0.0466    1.5207 H   0  0  0  0  0  0  0  0  0  0  0  0
   -0.7765    1.9444    2.8108 H   0  0  0  0  0  0  0  0  0  0  0  0
  1  2  2  0
  2  3  1  0
  2  4  1  0
  2  5  1  0
  5  6  1  0
  6  7  1  0
  7  8  1  0
  8  9  1  0
  9 10  1  0
  9 11  1  0
 11 12  1  0
  9 13  1  0
 13 14  1  0
 13 15  1  0
 15 16  1  0
 15  7  1  0
  3 17  1  0
  4 18  1  0
  6 19  1  0
  6 20  1  0
  7 21  1  6
 10 22  1  0
 11 23  1  0
 11 24  1  0
 12 25  1  0
 13 26  1  6
 14 27  1  0
 15 28  1  1
 16 29  1  0
M  END
