
     RDKit          3D

 17 16  0  0  0  0  0  0  0  0999 V2000
   -2.4717    1.5459    1.2627 O   0  0  0  0  0  0  0  0  0  0  0  0
   -2.7057    0.4516    0.7551 C   0  0  0  0  0  0  0  0  0  0  0  0
   -1.7120   -0.3269   -0.0835 C   0  0  2  0  0  0  0  0  0  0  0  0
   -1.7638   -1.7031    0.2930 O   0  0  0  0  0  0  0  0  0  0  0  0
   -0.2985    0.2124    0.1120 C   0  0  0  0  0  0  0  0  0  0  0  0
    0.5888   -0.5681   -0.6798 O   0  0  0  0  0  0  0  0  0  0  0  0
    2.1268   -0.1446   -0.7717 P   0  0  0  0  0  5  0  0  0  0  0  0
    3.0263   -1.0463   -1.5414 O   0  0  0  0  0  0  0  0  0  0  0  0
    2.1827    1.3943   -1.1752 O   0  0  0  0  0  0  0  0  0  0  0  0
    2.6081   -0.0590    0.7500 O   0  0  0  0  0  0  0  0  0  0  0  0
   -3.7079   -0.0034    0.8375 H   0  0  0  0  0  0  0  0  0  0  0  0
   -2.0156   -0.2648   -1.1334 H   0  0  0  0  0  0  0  0  0  0  0  0
   -0.9646   -2.1150   -0.0903 H   0  0  0  0  0  0  0  0  0  0  0  0
   -0.2391    1.2632   -0.1889 H   0  0  0  0  0  0  0  0  0  0  0  0
    0.0052    0.1230    1.1607 H   0  0  0  0  0  0  0  0  0  0  0  0
    2.0433    1.9766   -0.4077 H   0  0  0  0  0  0  0  0  0  0  0  0
    3.2976   -0.7360    0.9009 H   0  0  0  0  0  0  0  0  0  0  0  0
  1  2  2  0
  2  3  1  0
  3  4  1  0
  3  5  1  0
  5  6  1  0
  6  7  1  0
  7  8  2  0
  7  9  1  0
  7 10  1  0
  2 11  1  0
  3 12  1  6
  4 13  1  0
  5 14  1  0
  5 15  1  0
  9 16  1  0
 10 17  1  0
M  END
