
     RDKit          3D

 21 20  0  0  0  0  0  0  0  0999 V2000
   -4.1997    1.3581    0.0482 O   0  0  0  0  0  0  0  0  0  0  0  0
   -3.0088    1.6683    0.0626 C   0  0  0  0  0  0  0  0  0  0  0  0
   -1.9443    0.8341   -0.6324 C   0  0  2  0  0  0  0  0  0  0  0  0
   -2.4976   -0.4060   -1.0646 O   0  0  0  0  0  0  0  0  0  0  0  0
   -0.7770    0.6033    0.3294 C   0  0  2  0  0  0  0  0  0  0  0  0
   -0.1226    1.8552    0.5937 O   0  0  0  0  0  0  0  0  0  0  0  0
    0.2499   -0.3811   -0.2375 C   0  0  0  0  0  0  0  0  0  0  0  0
    1.3390   -0.4622    0.6821 O   0  0  0  0  0  0  0  0  0  0  0  0
    2.4370   -1.5865    0.3813 P   0  0  0  0  0  5  0  0  0  0  0  0
    1.9481   -2.9754    0.1733 O   0  0  0  0  0  0  0  0  0  0  0  0
    3.5178   -1.3966    1.5358 O   0  0  0  0  0  0  0  0  0  0  0  0
    3.2493   -1.0354   -0.8771 O   0  0  0  0  0  0  0  0  0  0  0  0
   -2.6663    2.6054    0.5336 H   0  0  0  0  0  0  0  0  0  0  0  0
   -1.6197    1.3996   -1.5128 H   0  0  0  0  0  0  0  0  0  0  0  0
   -3.4633   -0.2604   -1.1516 H   0  0  0  0  0  0  0  0  0  0  0  0
   -1.1376    0.2256    1.2942 H   0  0  0  0  0  0  0  0  0  0  0  0
    0.7047    1.6213    1.0599 H   0  0  0  0  0  0  0  0  0  0  0  0
    0.6431   -0.0197   -1.1936 H   0  0  0  0  0  0  0  0  0  0  0  0
   -0.1892   -1.3741   -0.3748 H   0  0  0  0  0  0  0  0  0  0  0  0
    3.8726   -0.4909    1.5468 H   0  0  0  0  0  0  0  0  0  0  0  0
    3.6644   -1.7827   -1.3499 H   0  0  0  0  0  0  0  0  0  0  0  0
  1  2  2  0
  2  3  1  0
  3  4  1  0
  3  5  1  0
  5  6  1  0
  5  7  1  0
  7  8  1  0
  8  9  1  0
  9 10  2  0
  9 11  1  0
  9 12  1  0
  2 13  1  0
  3 14  1  6
  4 15  1  0
  5 16  1  1
  6 17  1  0
  7 18  1  0
  7 19  1  0
 11 20  1  0
 12 21  1  0
M  END
