
     RDKit          3D

 29 29  0  0  0  0  0  0  0  0999 V2000
   -3.0471    0.6683   -1.9405 O   0  0  0  0  0  0  0  0  0  0  0  0
   -3.5053   -0.0086   -0.6976 P   0  0  0  0  0  5  0  0  0  0  0  0
   -4.2932   -1.3796   -0.8870 O   0  0  0  0  0  0  0  0  0  0  0  0
   -4.5953    0.8537    0.0900 O   0  0  0  0  0  0  0  0  0  0  0  0
   -2.4024   -0.3437    0.4093 O   0  0  0  0  0  0  0  0  0  0  0  0
   -1.4030    0.6280    0.6489 C   0  0  0  0  0  0  0  0  0  0  0  0
   -0.1636    0.4294   -0.2393 C   0  0  1  0  0  0  0  0  0  0  0  0
    0.7924    1.4748    0.0403 O   0  0  0  0  0  0  0  0  0  0  0  0
    1.7736    1.1006    0.9918 C   0  0  2  0  0  0  0  0  0  0  0  0
    2.5834    2.2349    1.2686 O   0  0  0  0  0  0  0  0  0  0  0  0
    2.6808   -0.0256    0.4499 C   0  0  2  0  0  0  0  0  0  0  0  0
    3.8038    0.5026   -0.2818 O   0  0  0  0  0  0  0  0  0  0  0  0
    1.9086   -0.9534   -0.4901 C   0  0  1  0  0  0  0  0  0  0  0  0
    2.4505   -2.2832   -0.4303 O   0  0  0  0  0  0  0  0  0  0  0  0
    0.4292   -0.9929   -0.1115 C   0  0  2  0  0  0  0  0  0  0  0  0
   -0.2587   -1.9174   -0.9567 O   0  0  0  0  0  0  0  0  0  0  0  0
   -4.5265   -1.7690   -0.0266 H   0  0  0  0  0  0  0  0  0  0  0  0
   -5.1528    1.3336   -0.5514 H   0  0  0  0  0  0  0  0  0  0  0  0
   -1.1215    0.5610    1.7056 H   0  0  0  0  0  0  0  0  0  0  0  0
   -1.8085    1.6384    0.5147 H   0  0  0  0  0  0  0  0  0  0  0  0
   -0.4748    0.5750   -1.2802 H   0  0  0  0  0  0  0  0  0  0  0  0
    1.2851    0.7894    1.9226 H   0  0  0  0  0  0  0  0  0  0  0  0
    1.9547    2.9244    1.5444 H   0  0  0  0  0  0  0  0  0  0  0  0
    3.1176   -0.5722    1.2933 H   0  0  0  0  0  0  0  0  0  0  0  0
    3.9081    1.4198    0.0522 H   0  0  0  0  0  0  0  0  0  0  0  0
    2.0128   -0.6376   -1.5362 H   0  0  0  0  0  0  0  0  0  0  0  0
    3.3870   -2.1914   -0.6968 H   0  0  0  0  0  0  0  0  0  0  0  0
    0.3256   -1.3717    0.9130 H   0  0  0  0  0  0  0  0  0  0  0  0
    0.3396   -2.6876   -1.0410 H   0  0  0  0  0  0  0  0  0  0  0  0
  1  2  2  0
  2  3  1  0
  2  4  1  0
  2  5  1  0
  5  6  1  0
  6  7  1  0
  7  8  1  0
  8  9  1  0
  9 10  1  0
  9 11  1  0
 11 12  1  0
 11 13  1  0
 13 14  1  0
 13 15  1  0
 15 16  1  0
 15  7  1  0
  3 17  1  0
  4 18  1  0
  6 19  1  0
  6 20  1  0
  7 21  1  6
  9 22  1  1
 10 23  1  0
 11 24  1  1
 12 25  1  0
 13 26  1  6
 14 27  1  0
 15 28  1  1
 16 29  1  0
M  END
