
     RDKit          3D

 27 27  0  0  0  0  0  0  0  0999 V2000
   -2.1313    3.0967   -0.3981 O   0  0  0  0  0  0  0  0  0  0  0  0
   -1.8113    1.9602   -0.0570 C   0  0  0  0  0  0  0  0  0  0  0  0
   -0.9785    1.7831    0.9990 O   0  0  0  0  0  0  0  0  0  0  0  0
   -0.1654    0.6015    1.1750 C   0  0  2  0  0  0  0  0  0  0  0  0
    1.2275    0.8606    0.5883 C   0  0  0  0  0  0  0  0  0  0  0  0
    2.1001   -0.2088    0.9146 O   0  0  0  0  0  0  0  0  0  0  0  0
    2.9448   -0.9308   -0.2324 P   0  0  0  0  0  5  0  0  0  0  0  0
    3.9243   -1.9563    0.2139 O   0  0  0  0  0  0  0  0  0  0  0  0
    3.6007    0.2439   -1.0827 O   0  0  0  0  0  0  0  0  0  0  0  0
    1.8508   -1.5283   -1.2387 O   0  0  0  0  0  0  0  0  0  0  0  0
   -0.8419   -0.6744    0.6638 C   0  0  1  0  0  0  0  0  0  0  0  0
   -1.9144   -1.0272    1.5576 O   0  0  0  0  0  0  0  0  0  0  0  0
   -1.4349   -0.4534   -0.7301 C   0  0  2  0  0  0  0  0  0  0  0  0
   -0.4358   -0.2167   -1.7172 O   0  0  0  0  0  0  0  0  0  0  0  0
   -2.4228    0.7130   -0.6937 C   0  0  1  0  0  0  0  0  0  0  0  0
   -3.6288    0.3315   -0.0252 O   0  0  0  0  0  0  0  0  0  0  0  0
   -0.0484    0.4932    2.2610 H   0  0  0  0  0  0  0  0  0  0  0  0
    1.1929    1.0505   -0.4876 H   0  0  0  0  0  0  0  0  0  0  0  0
    1.6416    1.7735    1.0321 H   0  0  0  0  0  0  0  0  0  0  0  0
    4.4811    0.4859   -0.7380 H   0  0  0  0  0  0  0  0  0  0  0  0
    2.2939   -2.1657   -1.8351 H   0  0  0  0  0  0  0  0  0  0  0  0
   -0.1403   -1.5145    0.6539 H   0  0  0  0  0  0  0  0  0  0  0  0
   -1.5129   -1.3186    2.3987 H   0  0  0  0  0  0  0  0  0  0  0  0
   -1.9802   -1.3582   -1.0262 H   0  0  0  0  0  0  0  0  0  0  0  0
    0.2407   -0.9255   -1.6589 H   0  0  0  0  0  0  0  0  0  0  0  0
   -2.6878    0.9840   -1.7226 H   0  0  0  0  0  0  0  0  0  0  0  0
   -3.3638   -0.0991    0.8150 H   0  0  0  0  0  0  0  0  0  0  0  0
  1  2  2  0
  2  3  1  0
  3  4  1  0
  4  5  1  0
  5  6  1  0
  6  7  1  0
  7  8  2  0
  7  9  1  0
  7 10  1  0
  4 11  1  0
 11 12  1  0
 11 13  1  0
 13 14  1  0
 13 15  1  0
 15 16  1  0
 15  2  1  0
  4 17  1  1
  5 18  1  0
  5 19  1  0
  9 20  1  0
 10 21  1  0
 11 22  1  6
 12 23  1  0
 13 24  1  6
 14 25  1  0
 15 26  1  6
 16 27  1  0
M  END
