
     RDKit          3D

104109  0  0  0  0  0  0  0  0999 V2000
  -11.3194    3.3883   -3.2117 N   0  0  0  0  0  0  0  0  0  0  0  0
  -11.2583    2.3325   -2.3200 C   0  0  0  0  0  0  0  0  0  0  0  0
  -12.3660    1.5714   -2.1376 N   0  0  0  0  0  0  0  0  0  0  0  0
  -12.3085    0.5582   -1.2379 C   0  0  0  0  0  0  0  0  0  0  0  0
  -11.2680    0.1675   -0.4775 N   0  0  0  0  0  0  0  0  0  0  0  0
  -10.1943    0.9485   -0.6986 C   0  0  0  0  0  0  0  0  0  0  0  0
  -10.1135    2.0347   -1.5657 C   0  0  0  0  0  0  0  0  0  0  0  0
   -8.8614    2.6080   -1.5080 N   0  0  0  0  0  0  0  0  0  0  0  0
   -8.1974    1.8876   -0.6190 C   0  0  0  0  0  0  0  0  0  0  0  0
   -8.9570    0.8760   -0.1140 N   0  0  0  0  0  0  0  0  0  0  0  0
   -8.5633   -0.1263    0.8731 C   0  0  2  0  0  0  0  0  0  0  0  0
   -7.2597    0.2391    1.3885 O   0  0  0  0  0  0  0  0  0  0  0  0
   -6.3809   -0.9006    1.3617 C   0  0  2  0  0  0  0  0  0  0  0  0
   -5.3341   -0.6851    0.2732 C   0  0  0  0  0  0  0  0  0  0  0  0
   -4.5498    0.4774    0.4966 O   0  0  0  0  0  0  0  0  0  0  0  0
   -3.5540    0.5715    1.7336 P   0  0  0  0  0  5  0  0  0  0  0  0
   -4.1748    0.7770    3.0784 O   0  0  0  0  0  0  0  0  0  0  0  0
   -2.7590   -0.8201    1.7220 O   0  0  0  0  0  0  0  0  0  0  0  0
   -2.4376    1.6256    1.3467 O   0  0  0  0  0  0  0  0  0  0  0  0
   -1.6708    1.6880   -0.0389 P   0  0  0  0  0  5  0  0  0  0  0  0
   -2.4740    1.5868   -1.2931 O   0  0  0  0  0  0  0  0  0  0  0  0
   -0.8818    3.0844    0.0662 O   0  0  0  0  0  0  0  0  0  0  0  0
   -0.4645    0.6415    0.1026 O   0  0  0  0  0  0  0  0  0  0  0  0
   -0.5195   -0.5656   -0.6448 C   0  0  0  0  0  0  0  0  0  0  0  0
    0.6773   -1.4507   -0.2786 C   0  0  1  0  0  0  0  0  0  0  0  0
    1.8814   -0.7466   -0.6664 O   0  0  0  0  0  0  0  0  0  0  0  0
    2.6100   -0.4297    0.5386 C   0  0  1  0  0  0  0  0  0  0  0  0
    3.2857    0.8853    0.3513 N   0  0  0  0  0  4  0  0  0  0  0  0
    3.0950    1.9580    1.1514 C   0  0  0  0  0  0  0  0  0  0  0  0
    3.8441    3.1117    0.9780 C   0  0  0  0  0  0  0  0  0  0  0  0
    4.8272    3.1523   -0.0010 C   0  0  0  0  0  0  0  0  0  0  0  0
    5.0492    2.0467   -0.8315 C   0  0  0  0  0  0  0  0  0  0  0  0
    6.1467    2.0414   -1.9040 C   0  0  0  0  0  0  0  0  0  0  0  0
    5.5972    1.5814   -3.1734 N   0  0  0  0  0  0  0  0  0  0  0  0
    6.4740    3.4079   -2.1794 O   0  0  0  0  0  0  0  0  0  0  0  0
    7.5269    1.2888   -1.5722 C   0  0  2  0  0  0  0  0  0  0  0  0
    8.2071    1.1453   -2.8690 O   0  0  0  0  0  0  0  0  0  0  0  0
    7.2981   -0.1388   -1.0904 C   0  0  0  0  0  0  0  0  0  0  0  0
    6.2621   -0.7684   -1.3049 O   0  0  0  0  0  0  0  0  0  0  0  0
    8.3397   -0.7734   -0.5049 O   0  0  0  0  0  0  0  0  0  0  0  0
    9.6305   -0.1404   -0.3283 C   0  0  2  0  0  0  0  0  0  0  0  0
   10.4416   -1.0199    0.6376 C   0  0  0  0  0  0  0  0  0  0  0  0
   10.5757   -2.3172    0.0576 O   0  0  0  0  0  0  0  0  0  0  0  0
   11.1296   -3.4867    1.0028 P   0  0  0  0  0  5  0  0  0  0  0  0
   10.6153   -3.5097    2.3985 O   0  0  0  0  0  0  0  0  0  0  0  0
   12.7125   -3.3432    0.9244 O   0  0  0  0  0  0  0  0  0  0  0  0
   10.8957   -4.8038    0.1364 O   0  0  0  0  0  0  0  0  0  0  0  0
    9.4200    1.2517    0.2323 C   0  0  1  0  0  0  0  0  0  0  0  0
   10.6641    1.9365    0.3521 O   0  0  0  0  0  0  0  0  0  0  0  0
    8.4883    2.0903   -0.6666 C   0  0  2  0  0  0  0  0  0  0  0  0
    7.8167    3.0072    0.2108 O   0  0  0  0  0  0  0  0  0  0  0  0
    4.1893    0.9535   -0.6595 C   0  0  0  0  0  0  0  0  0  0  0  0
    1.6414   -0.5509    1.7074 C   0  0  2  0  0  0  0  0  0  0  0  0
    2.3332   -0.7482    2.9388 O   0  0  0  0  0  0  0  0  0  0  0  0
    0.8048   -1.7298    1.2259 C   0  0  2  0  0  0  0  0  0  0  0  0
    1.5624   -2.9123    1.4789 O   0  0  0  0  0  0  0  0  0  0  0  0
   -7.2550   -2.1127    1.0814 C   0  0  1  0  0  0  0  0  0  0  0  0
   -7.6779   -2.6985    2.3144 O   0  0  0  0  0  0  0  0  0  0  0  0
   -8.4310   -1.5365    0.2944 C   0  0  1  0  0  0  0  0  0  0  0  0
   -9.6007   -2.3054    0.4794 O   0  0  0  0  0  0  0  0  0  0  0  0
   -9.7460   -3.7123   -0.2647 P   0  0  0  0  0  5  0  0  0  0  0  0
  -10.1551   -4.8699    0.5562 O   0  0  0  0  0  0  0  0  0  0  0  0
   -8.4231   -3.9230   -1.1396 O   0  0  0  0  0  0  0  0  0  0  0  0
  -10.8342   -3.3782   -1.3911 O   0  0  0  0  0  0  0  0  0  0  0  0
  -12.2709    3.6518   -3.4214 H   0  0  0  0  0  0  0  0  0  0  0  0
  -10.7079    4.1471   -2.9338 H   0  0  0  0  0  0  0  0  0  0  0  0
  -13.2150   -0.0299   -1.1262 H   0  0  0  0  0  0  0  0  0  0  0  0
   -7.1763    2.0689   -0.3207 H   0  0  0  0  0  0  0  0  0  0  0  0
   -9.2787   -0.0601    1.7039 H   0  0  0  0  0  0  0  0  0  0  0  0
   -5.9153   -0.9553    2.3555 H   0  0  0  0  0  0  0  0  0  0  0  0
   -4.6771   -1.5500    0.1448 H   0  0  0  0  0  0  0  0  0  0  0  0
   -5.8451   -0.5149   -0.6755 H   0  0  0  0  0  0  0  0  0  0  0  0
   -2.8156   -1.2145    2.6203 H   0  0  0  0  0  0  0  0  0  0  0  0
   -1.3952    3.7929   -0.3646 H   0  0  0  0  0  0  0  0  0  0  0  0
   -0.4799   -0.3117   -1.7107 H   0  0  0  0  0  0  0  0  0  0  0  0
   -1.4570   -1.0906   -0.4435 H   0  0  0  0  0  0  0  0  0  0  0  0
    0.6306   -2.3835   -0.8531 H   0  0  0  0  0  0  0  0  0  0  0  0
    3.4345   -1.1510    0.6584 H   0  0  0  0  0  0  0  0  0  0  0  0
    2.3514    1.9041    1.9385 H   0  0  0  0  0  0  0  0  0  0  0  0
    3.6746    3.9913    1.6065 H   0  0  0  0  0  0  0  0  0  0  0  0
    5.3916    4.0719   -0.1170 H   0  0  0  0  0  0  0  0  0  0  0  0
    6.3771    1.6390   -3.8436 H   0  0  0  0  0  0  0  0  0  0  0  0
    5.4290    0.5776   -3.1529 H   0  0  0  0  0  0  0  0  0  0  0  0
    6.0870    3.5285   -3.0685 H   0  0  0  0  0  0  0  0  0  0  0  0
    8.8159    0.3760   -2.8490 H   0  0  0  0  0  0  0  0  0  0  0  0
   10.1405   -0.1382   -1.2923 H   0  0  0  0  0  0  0  0  0  0  0  0
   11.4370   -0.6146    0.8191 H   0  0  0  0  0  0  0  0  0  0  0  0
    9.8968   -1.1211    1.5814 H   0  0  0  0  0  0  0  0  0  0  0  0
   13.1160   -3.7878    1.6963 H   0  0  0  0  0  0  0  0  0  0  0  0
   11.1916   -4.6924   -0.7788 H   0  0  0  0  0  0  0  0  0  0  0  0
    8.9893    1.1769    1.2425 H   0  0  0  0  0  0  0  0  0  0  0  0
   10.4724    2.7835    0.7902 H   0  0  0  0  0  0  0  0  0  0  0  0
    9.1215    2.7260   -1.3142 H   0  0  0  0  0  0  0  0  0  0  0  0
    7.7303    3.8512   -0.2988 H   0  0  0  0  0  0  0  0  0  0  0  0
    4.1960    0.0885   -1.3334 H   0  0  0  0  0  0  0  0  0  0  0  0
    1.0009    0.3212    1.8263 H   0  0  0  0  0  0  0  0  0  0  0  0
    1.8214   -1.3845    3.4797 H   0  0  0  0  0  0  0  0  0  0  0  0
   -0.1470   -1.8357    1.7408 H   0  0  0  0  0  0  0  0  0  0  0  0
    1.3396   -3.6267    0.8381 H   0  0  0  0  0  0  0  0  0  0  0  0
   -6.7181   -2.8948    0.5407 H   0  0  0  0  0  0  0  0  0  0  0  0
   -8.1914   -2.0441    2.8186 H   0  0  0  0  0  0  0  0  0  0  0  0
   -8.1948   -1.4813   -0.7772 H   0  0  0  0  0  0  0  0  0  0  0  0
   -8.4821   -4.7668   -1.6296 H   0  0  0  0  0  0  0  0  0  0  0  0
  -11.7297   -3.4648   -1.0384 H   0  0  0  0  0  0  0  0  0  0  0  0
  1  2  1  0
  2  3  2  0
  3  4  1  0
  4  5  2  0
  5  6  1  0
  6  7  2  0
  7  8  1  0
  8  9  2  0
  9 10  1  0
 10 11  1  0
 11 12  1  0
 12 13  1  0
 13 14  1  0
 14 15  1  0
 15 16  1  0
 16 17  2  0
 16 18  1  0
 16 19  1  0
 19 20  1  0
 20 21  2  0
 20 22  1  0
 20 23  1  0
 23 24  1  0
 24 25  1  0
 25 26  1  0
 26 27  1  0
 27 28  1  0
 28 29  2  0
 29 30  1  0
 30 31  2  0
 31 32  1  0
 32 33  1  0
 33 34  1  0
 33 35  1  0
 33 36  1  0
 36 37  1  6
 36 38  1  0
 38 39  2  0
 38 40  1  0
 40 41  1  0
 41 42  1  0
 42 43  1  0
 43 44  1  0
 44 45  2  0
 44 46  1  0
 44 47  1  0
 41 48  1  0
 48 49  1  0
 48 50  1  0
 50 51  1  0
 32 52  2  0
 27 53  1  0
 53 54  1  0
 53 55  1  0
 55 56  1  0
 13 57  1  0
 57 58  1  0
 57 59  1  0
 59 60  1  0
 60 61  1  0
 61 62  2  0
 61 63  1  0
 61 64  1  0
  7  2  1  0
 59 11  1  0
 10  6  1  0
 55 25  1  0
 52 28  1  0
 50 36  1  0
  1 65  1  0
  1 66  1  0
  4 67  1  0
  9 68  1  0
 11 69  1  1
 13 70  1  1
 14 71  1  0
 14 72  1  0
 18 73  1  0
 22 74  1  0
 24 75  1  0
 24 76  1  0
 25 77  1  6
 27 78  1  1
 29 79  1  0
 30 80  1  0
 31 81  1  0
 34 82  1  0
 34 83  1  0
 35 84  1  0
 37 85  1  0
 41 86  1  6
 42 87  1  0
 42 88  1  0
 46 89  1  0
 47 90  1  0
 48 91  1  1
 49 92  1  0
 50 93  1  6
 51 94  1  0
 52 95  1  0
 53 96  1  1
 54 97  1  0
 55 98  1  1
 56 99  1  0
 57100  1  6
 58101  1  0
 59102  1  6
 63103  1  0
 64104  1  0
M  CHG  1  28   1
M  END
