
     RDKit          3D

107111  0  0  0  0  0  0  0  0999 V2000
   11.9066    3.1980   -0.2392 N   0  0  0  0  0  0  0  0  0  0  0  0
   10.7189    2.4793   -0.2246 C   0  0  0  0  0  0  0  0  0  0  0  0
    9.6913    2.9707    0.5048 N   0  0  0  0  0  0  0  0  0  0  0  0
    8.5286    2.2883    0.5165 C   0  0  0  0  0  0  0  0  0  0  0  0
    8.2403    1.1162   -0.0867 N   0  0  0  0  0  0  0  0  0  0  0  0
    9.3019    0.6527   -0.7695 C   0  0  0  0  0  0  0  0  0  0  0  0
   10.5410    1.2611   -0.8977 C   0  0  0  0  0  0  0  0  0  0  0  0
   11.3961    0.4827   -1.6595 N   0  0  0  0  0  0  0  0  0  0  0  0
   10.6813   -0.5736   -1.9876 C   0  0  0  0  0  0  0  0  0  0  0  0
    9.4131   -0.5206   -1.4653 N   0  0  0  0  0  0  0  0  0  0  0  0
    8.4275   -1.5726   -1.6148 C   0  0  2  0  0  0  0  0  0  0  0  0
    7.3829   -1.1180   -2.5034 O   0  0  0  0  0  0  0  0  0  0  0  0
    6.1145   -1.6033   -1.9931 C   0  0  2  0  0  0  0  0  0  0  0  0
    5.2833   -0.4001   -1.5285 C   0  0  0  0  0  0  0  0  0  0  0  0
    4.6184    0.1486   -2.6650 O   0  0  0  0  0  0  0  0  0  0  0  0
    3.4141    1.1813   -2.4851 P   0  0  0  0  0  5  0  0  0  0  0  0
    3.3243    2.2084   -3.5717 O   0  0  0  0  0  0  0  0  0  0  0  0
    3.6907    1.9111   -1.0831 O   0  0  0  0  0  0  0  0  0  0  0  0
    2.0761    0.3668   -2.2871 O   0  0  0  0  0  0  0  0  0  0  0  0
    1.6443   -0.7830   -1.3021 P   0  0  0  0  0  5  0  0  0  0  0  0
    0.2103   -1.2026   -1.3502 O   0  0  0  0  0  0  0  0  0  0  0  0
    2.5866   -2.0131   -1.7235 O   0  0  0  0  0  0  0  0  0  0  0  0
    2.2168   -0.3614    0.1298 O   0  0  0  0  0  0  0  0  0  0  0  0
    1.4406   -0.5725    1.3077 C   0  0  0  0  0  0  0  0  0  0  0  0
    0.4055    0.5463    1.4862 C   0  0  1  0  0  0  0  0  0  0  0  0
   -0.7552    0.2824    0.6769 O   0  0  0  0  0  0  0  0  0  0  0  0
   -1.8483    1.0176    1.2337 C   0  0  1  0  0  0  0  0  0  0  0  0
   -3.1117    0.2318    1.2175 N   0  0  0  0  0  4  0  0  0  0  0  0
   -3.0946   -1.1131    1.1299 C   0  0  0  0  0  0  0  0  0  0  0  0
   -4.2738   -1.8363    1.2470 C   0  0  0  0  0  0  0  0  0  0  0  0
   -5.4754   -1.1600    1.4479 C   0  0  0  0  0  0  0  0  0  0  0  0
   -5.5128    0.2445    1.4556 C   0  0  0  0  0  0  0  0  0  0  0  0
   -6.7893    1.0629    1.6871 C   0  0  0  0  0  0  0  0  0  0  0  0
   -7.8942    0.2032    2.0679 N   0  0  0  0  0  0  0  0  0  0  0  0
   -6.4305    1.7315    2.8969 O   0  0  0  0  0  0  0  0  0  0  0  0
   -7.2013    2.0865    0.5291 C   0  0  2  0  0  0  0  0  0  0  0  0
   -6.0352    2.7977    0.0531 O   0  0  0  0  0  0  0  0  0  0  0  0
   -8.1405    3.1054    1.2241 C   0  0  0  0  0  0  0  0  0  0  0  0
   -9.3590    3.0510    1.2836 O   0  0  0  0  0  0  0  0  0  0  0  0
   -7.4619    4.1172    1.8125 O   0  0  0  0  0  0  0  0  0  0  0  0
   -7.9960    1.5614   -0.7083 C   0  0  1  0  0  0  0  0  0  0  0  0
   -8.5073    2.7617   -1.3976 O   0  0  0  0  0  0  0  0  0  0  0  0
   -7.2475    0.8498   -1.8568 C   0  0  2  0  0  0  0  0  0  0  0  0
   -8.1454    0.8151   -2.9975 O   0  0  0  0  0  0  0  0  0  0  0  0
   -6.7418   -0.5837   -1.6452 C   0  0  2  0  0  0  0  0  0  0  0  0
   -6.1604   -1.0407   -2.8808 O   0  0  0  0  0  0  0  0  0  0  0  0
   -7.7856   -1.6038   -1.1813 C   0  0  0  0  0  0  0  0  0  0  0  0
   -8.7655   -1.8366   -2.1811 O   0  0  0  0  0  0  0  0  0  0  0  0
  -10.1251   -2.5025   -1.6619 P   0  0  0  0  0  5  0  0  0  0  0  0
   -9.9709   -3.6139   -0.6773 O   0  0  0  0  0  0  0  0  0  0  0  0
  -10.8948   -2.9519   -2.9838 O   0  0  0  0  0  0  0  0  0  0  0  0
  -11.0306   -1.2726   -1.1864 O   0  0  0  0  0  0  0  0  0  0  0  0
   -4.2827    0.9041    1.3462 C   0  0  0  0  0  0  0  0  0  0  0  0
   -1.4636    1.3692    2.6762 C   0  0  2  0  0  0  0  0  0  0  0  0
   -1.2546    2.7798    2.7906 O   0  0  0  0  0  0  0  0  0  0  0  0
   -0.1577    0.6168    2.8958 C   0  0  2  0  0  0  0  0  0  0  0  0
    0.6683    1.3289    3.8010 O   0  0  0  0  0  0  0  0  0  0  0  0
    6.4500   -2.5884   -0.8720 C   0  0  1  0  0  0  0  0  0  0  0  0
    6.6766   -3.9003   -1.4091 O   0  0  0  0  0  0  0  0  0  0  0  0
    7.7493   -2.0234   -0.3287 C   0  0  1  0  0  0  0  0  0  0  0  0
    8.5051   -2.9928    0.3753 O   0  0  0  0  0  0  0  0  0  0  0  0
    8.7428   -2.7479    1.9304 P   0  0  0  0  0  5  0  0  0  0  0  0
    7.5234   -2.5638    2.7621 O   0  0  0  0  0  0  0  0  0  0  0  0
    9.6540   -3.9804    2.3608 O   0  0  0  0  0  0  0  0  0  0  0  0
    9.7804   -1.5420    1.9781 O   0  0  0  0  0  0  0  0  0  0  0  0
   12.7196    2.6423   -0.4913 H   0  0  0  0  0  0  0  0  0  0  0  0
   11.9906    3.8366    0.5401 H   0  0  0  0  0  0  0  0  0  0  0  0
    7.7358    2.7223    1.1088 H   0  0  0  0  0  0  0  0  0  0  0  0
   11.0317   -1.4126   -2.5880 H   0  0  0  0  0  0  0  0  0  0  0  0
    8.9376   -2.4149   -2.1034 H   0  0  0  0  0  0  0  0  0  0  0  0
    5.6181   -2.1016   -2.8331 H   0  0  0  0  0  0  0  0  0  0  0  0
    4.5428   -0.7127   -0.7929 H   0  0  0  0  0  0  0  0  0  0  0  0
    5.9059    0.3885   -1.0943 H   0  0  0  0  0  0  0  0  0  0  0  0
    4.1433    2.7668   -1.2624 H   0  0  0  0  0  0  0  0  0  0  0  0
    2.1590   -2.5164   -2.4462 H   0  0  0  0  0  0  0  0  0  0  0  0
    2.1435   -0.5686    2.1472 H   0  0  0  0  0  0  0  0  0  0  0  0
    0.9697   -1.5578    1.2570 H   0  0  0  0  0  0  0  0  0  0  0  0
    0.8347    1.5052    1.1642 H   0  0  0  0  0  0  0  0  0  0  0  0
   -2.0135    1.9072    0.6211 H   0  0  0  0  0  0  0  0  0  0  0  0
   -2.1388   -1.6071    0.9794 H   0  0  0  0  0  0  0  0  0  0  0  0
   -4.2477   -2.9240    1.2085 H   0  0  0  0  0  0  0  0  0  0  0  0
   -6.3831   -1.7489    1.5897 H   0  0  0  0  0  0  0  0  0  0  0  0
   -7.6477   -0.2088    2.9707 H   0  0  0  0  0  0  0  0  0  0  0  0
   -8.7125    0.7734    2.3077 H   0  0  0  0  0  0  0  0  0  0  0  0
   -6.3679    2.6931    2.7222 H   0  0  0  0  0  0  0  0  0  0  0  0
   -6.3817    3.4919   -0.5425 H   0  0  0  0  0  0  0  0  0  0  0  0
   -8.1595    4.7171    2.1698 H   0  0  0  0  0  0  0  0  0  0  0  0
   -8.8885    0.9898   -0.4225 H   0  0  0  0  0  0  0  0  0  0  0  0
   -9.4103    2.9166   -1.0473 H   0  0  0  0  0  0  0  0  0  0  0  0
   -6.4063    1.4680   -2.1989 H   0  0  0  0  0  0  0  0  0  0  0  0
   -8.4723    1.7401   -3.0898 H   0  0  0  0  0  0  0  0  0  0  0  0
   -5.9165   -0.5553   -0.9466 H   0  0  0  0  0  0  0  0  0  0  0  0
   -6.9012   -0.9632   -3.5254 H   0  0  0  0  0  0  0  0  0  0  0  0
   -7.2896   -2.5632   -0.9912 H   0  0  0  0  0  0  0  0  0  0  0  0
   -8.2661   -1.2786   -0.2538 H   0  0  0  0  0  0  0  0  0  0  0  0
  -10.9161   -3.9268   -3.0402 H   0  0  0  0  0  0  0  0  0  0  0  0
  -11.3469   -0.7879   -1.9748 H   0  0  0  0  0  0  0  0  0  0  0  0
   -4.2053    1.9857    1.3909 H   0  0  0  0  0  0  0  0  0  0  0  0
   -2.2215    1.1004    3.4199 H   0  0  0  0  0  0  0  0  0  0  0  0
   -0.5410    2.8960    3.4546 H   0  0  0  0  0  0  0  0  0  0  0  0
   -0.3761   -0.3855    3.2810 H   0  0  0  0  0  0  0  0  0  0  0  0
    1.2113    0.6941    4.3163 H   0  0  0  0  0  0  0  0  0  0  0  0
    5.6745   -2.6820   -0.1090 H   0  0  0  0  0  0  0  0  0  0  0  0
    5.8414   -4.2212   -1.7964 H   0  0  0  0  0  0  0  0  0  0  0  0
    7.5013   -1.1816    0.3230 H   0  0  0  0  0  0  0  0  0  0  0  0
    9.1241   -4.7651    2.5826 H   0  0  0  0  0  0  0  0  0  0  0  0
   10.0336   -1.3067    2.8870 H   0  0  0  0  0  0  0  0  0  0  0  0
  1  2  1  0
  2  3  2  0
  3  4  1  0
  4  5  2  0
  5  6  1  0
  6  7  2  0
  7  8  1  0
  8  9  2  0
  9 10  1  0
 10 11  1  0
 11 12  1  0
 12 13  1  0
 13 14  1  0
 14 15  1  0
 15 16  1  0
 16 17  2  0
 16 18  1  0
 16 19  1  0
 19 20  1  0
 20 21  2  0
 20 22  1  0
 20 23  1  0
 23 24  1  0
 24 25  1  0
 25 26  1  0
 26 27  1  0
 27 28  1  0
 28 29  2  0
 29 30  1  0
 30 31  2  0
 31 32  1  0
 32 33  1  0
 33 34  1  0
 33 35  1  0
 33 36  1  0
 36 37  1  6
 36 38  1  0
 38 39  2  0
 38 40  1  0
 36 41  1  0
 41 42  1  0
 41 43  1  0
 43 44  1  0
 43 45  1  0
 45 46  1  0
 45 47  1  0
 47 48  1  0
 48 49  1  0
 49 50  2  0
 49 51  1  0
 49 52  1  0
 32 53  2  0
 27 54  1  0
 54 55  1  0
 54 56  1  0
 56 57  1  0
 13 58  1  0
 58 59  1  0
 58 60  1  0
 60 61  1  0
 61 62  1  0
 62 63  2  0
 62 64  1  0
 62 65  1  0
  7  2  1  0
 60 11  1  0
 10  6  1  0
 56 25  1  0
 53 28  1  0
  1 66  1  0
  1 67  1  0
  4 68  1  0
  9 69  1  0
 11 70  1  6
 13 71  1  6
 14 72  1  0
 14 73  1  0
 18 74  1  0
 22 75  1  0
 24 76  1  0
 24 77  1  0
 25 78  1  6
 27 79  1  6
 29 80  1  0
 30 81  1  0
 31 82  1  0
 34 83  1  0
 34 84  1  0
 35 85  1  0
 37 86  1  0
 40 87  1  0
 41 88  1  1
 42 89  1  0
 43 90  1  6
 44 91  1  0
 45 92  1  1
 46 93  1  0
 47 94  1  0
 47 95  1  0
 51 96  1  0
 52 97  1  0
 53 98  1  0
 54 99  1  1
 55100  1  0
 56101  1  1
 57102  1  0
 58103  1  1
 59104  1  0
 60105  1  1
 64106  1  0
 65107  1  0
M  CHG  1  28   1
M  END
