
     RDKit          3D

 94 98  0  0  0  0  0  0  0  0999 V2000
   11.5363    4.8314    2.7012 N   0  0  0  0  0  0  0  0  0  0  0  0
   11.0524    4.2689    1.5387 C   0  0  0  0  0  0  0  0  0  0  0  0
   11.4771    4.7651    0.3531 N   0  0  0  0  0  0  0  0  0  0  0  0
   10.9825    4.2246   -0.7823 C   0  0  0  0  0  0  0  0  0  0  0  0
   10.0784    3.2344   -0.9108 N   0  0  0  0  0  0  0  0  0  0  0  0
    9.6880    2.7817    0.2919 C   0  0  0  0  0  0  0  0  0  0  0  0
   10.1114    3.2270    1.5332 C   0  0  0  0  0  0  0  0  0  0  0  0
    9.4716    2.5353    2.5507 N   0  0  0  0  0  0  0  0  0  0  0  0
    8.6561    1.7097    1.9297 C   0  0  0  0  0  0  0  0  0  0  0  0
    8.7700    1.8015    0.5661 N   0  0  0  0  0  0  0  0  0  0  0  0
    7.9934    1.0732   -0.4110 C   0  0  2  0  0  0  0  0  0  0  0  0
    6.6084    1.3969   -0.1859 O   0  0  0  0  0  0  0  0  0  0  0  0
    5.8135    0.2448   -0.5171 C   0  0  2  0  0  0  0  0  0  0  0  0
    4.9482   -0.1034    0.6949 C   0  0  0  0  0  0  0  0  0  0  0  0
    3.7966   -0.8224    0.2759 O   0  0  0  0  0  0  0  0  0  0  0  0
    3.3699   -2.1210    1.1062 P   0  0  0  0  0  5  0  0  0  0  0  0
    4.3216   -3.2628    1.0349 O   0  0  0  0  0  0  0  0  0  0  0  0
    3.2220   -1.5767    2.6045 O   0  0  0  0  0  0  0  0  0  0  0  0
    1.8632   -2.4088    0.7005 O   0  0  0  0  0  0  0  0  0  0  0  0
    1.3811   -2.5617   -0.8030 P   0  0  0  0  0  5  0  0  0  0  0  0
    2.2033   -3.4272   -1.6898 O   0  0  0  0  0  0  0  0  0  0  0  0
    1.2796   -1.0553   -1.3477 O   0  0  0  0  0  0  0  0  0  0  0  0
   -0.1688   -2.9893   -0.7139 O   0  0  0  0  0  0  0  0  0  0  0  0
   -1.0628   -2.1205   -0.0433 C   0  0  0  0  0  0  0  0  0  0  0  0
   -2.4395   -2.7796    0.0830 C   0  0  1  0  0  0  0  0  0  0  0  0
   -3.3491   -1.8384    0.7223 O   0  0  0  0  0  0  0  0  0  0  0  0
   -4.4758   -1.6883   -0.1579 C   0  0  1  0  0  0  0  0  0  0  0  0
   -5.0451   -0.3218   -0.0942 N   0  0  0  0  0  4  0  0  0  0  0  0
   -4.2372    0.7445    0.0889 C   0  0  0  0  0  0  0  0  0  0  0  0
   -4.7595    2.0296    0.1197 C   0  0  0  0  0  0  0  0  0  0  0  0
   -6.1327    2.2014   -0.0165 C   0  0  0  0  0  0  0  0  0  0  0  0
   -6.9914    1.0931   -0.1676 C   0  0  0  0  0  0  0  0  0  0  0  0
   -8.5127    1.2935   -0.2635 C   0  0  0  0  0  0  0  0  0  0  0  0
   -8.8695    1.7527   -1.5939 N   0  0  0  0  0  0  0  0  0  0  0  0
   -8.7903    2.4222    0.5740 O   0  0  0  0  0  0  0  0  0  0  0  0
   -9.4299    0.0897    0.2181 C   0  0  2  0  0  0  0  0  0  0  0  0
   -8.9013   -0.4654    1.4499 O   0  0  0  0  0  0  0  0  0  0  0  0
   -9.5038   -1.0653   -0.7791 C   0  0  0  0  0  0  0  0  0  0  0  0
   -8.8508   -1.1244   -1.8238 O   0  0  0  0  0  0  0  0  0  0  0  0
  -10.8828    0.5415    0.4712 C   0  0  0  0  0  0  0  0  0  0  0  0
  -10.9543    1.1460    1.7658 O   0  0  0  0  0  0  0  0  0  0  0  0
  -11.9237    2.4160    1.9196 P   0  0  0  0  0  5  0  0  0  0  0  0
  -13.1391    2.4199    1.0668 O   0  0  0  0  0  0  0  0  0  0  0  0
  -10.9408    3.6512    1.7173 O   0  0  0  0  0  0  0  0  0  0  0  0
  -12.1877    2.4636    3.4890 O   0  0  0  0  0  0  0  0  0  0  0  0
   -6.3849   -0.1644   -0.2338 C   0  0  0  0  0  0  0  0  0  0  0  0
   -3.9607   -1.9796   -1.5625 C   0  0  2  0  0  0  0  0  0  0  0  0
   -4.9972   -2.2725   -2.4868 O   0  0  0  0  0  0  0  0  0  0  0  0
   -3.0558   -3.1616   -1.2710 C   0  0  2  0  0  0  0  0  0  0  0  0
   -3.9282   -4.2920   -1.1324 O   0  0  0  0  0  0  0  0  0  0  0  0
    6.7774   -0.8795   -0.9189 C   0  0  1  0  0  0  0  0  0  0  0  0
    6.8633   -0.9107   -2.3464 O   0  0  0  0  0  0  0  0  0  0  0  0
    8.1025   -0.4458   -0.2963 C   0  0  1  0  0  0  0  0  0  0  0  0
    9.2758   -0.9346   -0.9230 O   0  0  0  0  0  0  0  0  0  0  0  0
    9.5262   -2.5018   -1.0353 P   0  0  0  0  0  5  0  0  0  0  0  0
   10.9279   -2.9224   -1.2879 O   0  0  0  0  0  0  0  0  0  0  0  0
    8.9296   -3.1597    0.2837 O   0  0  0  0  0  0  0  0  0  0  0  0
    8.5486   -3.0263   -2.1870 O   0  0  0  0  0  0  0  0  0  0  0  0
   11.3288    4.3714    3.5792 H   0  0  0  0  0  0  0  0  0  0  0  0
   12.2530    5.5370    2.6244 H   0  0  0  0  0  0  0  0  0  0  0  0
   11.3687    4.6449   -1.7074 H   0  0  0  0  0  0  0  0  0  0  0  0
    7.9636    1.0350    2.4171 H   0  0  0  0  0  0  0  0  0  0  0  0
    8.2731    1.4192   -1.4158 H   0  0  0  0  0  0  0  0  0  0  0  0
    5.1816    0.5229   -1.3665 H   0  0  0  0  0  0  0  0  0  0  0  0
    4.5924    0.8122    1.1873 H   0  0  0  0  0  0  0  0  0  0  0  0
    5.5315   -0.6691    1.4327 H   0  0  0  0  0  0  0  0  0  0  0  0
    3.4561   -2.2808    3.2372 H   0  0  0  0  0  0  0  0  0  0  0  0
    2.0558   -0.8464   -1.9160 H   0  0  0  0  0  0  0  0  0  0  0  0
   -1.1409   -1.1739   -0.5923 H   0  0  0  0  0  0  0  0  0  0  0  0
   -0.6757   -1.8724    0.9521 H   0  0  0  0  0  0  0  0  0  0  0  0
   -2.3671   -3.6636    0.7280 H   0  0  0  0  0  0  0  0  0  0  0  0
   -5.2568   -2.3898    0.1620 H   0  0  0  0  0  0  0  0  0  0  0  0
   -3.1736    0.5601    0.2062 H   0  0  0  0  0  0  0  0  0  0  0  0
   -4.1082    2.8905    0.2689 H   0  0  0  0  0  0  0  0  0  0  0  0
   -6.5375    3.2160    0.0245 H   0  0  0  0  0  0  0  0  0  0  0  0
   -8.5544    1.0773   -2.2969 H   0  0  0  0  0  0  0  0  0  0  0  0
   -8.3920    2.6264   -1.7898 H   0  0  0  0  0  0  0  0  0  0  0  0
   -8.8148    2.1049    1.4969 H   0  0  0  0  0  0  0  0  0  0  0  0
   -9.5232   -0.2142    2.1656 H   0  0  0  0  0  0  0  0  0  0  0  0
  -10.1689   -1.9024   -0.4975 H   0  0  0  0  0  0  0  0  0  0  0  0
  -11.2368    1.2193   -0.3187 H   0  0  0  0  0  0  0  0  0  0  0  0
  -11.5639   -0.3200    0.4985 H   0  0  0  0  0  0  0  0  0  0  0  0
  -10.6228    3.7360    0.7981 H   0  0  0  0  0  0  0  0  0  0  0  0
  -12.8790    3.1281    3.6951 H   0  0  0  0  0  0  0  0  0  0  0  0
   -6.9363   -1.0810   -0.3886 H   0  0  0  0  0  0  0  0  0  0  0  0
   -3.3743   -1.1394   -1.9527 H   0  0  0  0  0  0  0  0  0  0  0  0
   -5.1436   -3.2466   -2.4506 H   0  0  0  0  0  0  0  0  0  0  0  0
   -2.3438   -3.3796   -2.0713 H   0  0  0  0  0  0  0  0  0  0  0  0
   -3.3750   -5.0991   -1.1095 H   0  0  0  0  0  0  0  0  0  0  0  0
    6.4457   -1.8670   -0.5809 H   0  0  0  0  0  0  0  0  0  0  0  0
    7.2656   -1.7858   -2.5668 H   0  0  0  0  0  0  0  0  0  0  0  0
    8.1141   -0.7460    0.7593 H   0  0  0  0  0  0  0  0  0  0  0  0
    9.5653   -3.8027    0.6686 H   0  0  0  0  0  0  0  0  0  0  0  0
    9.0925   -3.3977   -2.9166 H   0  0  0  0  0  0  0  0  0  0  0  0
  1  2  1  0
  2  3  2  0
  3  4  1  0
  4  5  2  0
  5  6  1  0
  6  7  2  0
  7  8  1  0
  8  9  2  0
  9 10  1  0
 10 11  1  0
 11 12  1  0
 12 13  1  0
 13 14  1  0
 14 15  1  0
 15 16  1  0
 16 17  2  0
 16 18  1  0
 16 19  1  0
 19 20  1  0
 20 21  2  0
 20 22  1  0
 20 23  1  0
 23 24  1  0
 24 25  1  0
 25 26  1  0
 26 27  1  0
 27 28  1  0
 28 29  2  0
 29 30  1  0
 30 31  2  0
 31 32  1  0
 32 33  1  0
 33 34  1  0
 33 35  1  0
 33 36  1  0
 36 37  1  1
 36 38  1  0
 38 39  2  0
 36 40  1  0
 40 41  1  0
 41 42  1  0
 42 43  2  0
 42 44  1  0
 42 45  1  0
 32 46  2  0
 27 47  1  0
 47 48  1  0
 47 49  1  0
 49 50  1  0
 13 51  1  0
 51 52  1  0
 51 53  1  0
 53 54  1  0
 54 55  1  0
 55 56  2  0
 55 57  1  0
 55 58  1  0
  7  2  1  0
 53 11  1  0
 10  6  1  0
 49 25  1  0
 46 28  1  0
  1 59  1  0
  1 60  1  0
  4 61  1  0
  9 62  1  0
 11 63  1  6
 13 64  1  6
 14 65  1  0
 14 66  1  0
 18 67  1  0
 22 68  1  0
 24 69  1  0
 24 70  1  0
 25 71  1  1
 27 72  1  1
 29 73  1  0
 30 74  1  0
 31 75  1  0
 34 76  1  0
 34 77  1  0
 35 78  1  0
 37 79  1  0
 38 80  1  0
 40 81  1  0
 40 82  1  0
 44 83  1  0
 45 84  1  0
 46 85  1  0
 47 86  1  6
 48 87  1  0
 49 88  1  6
 50 89  1  0
 51 90  1  1
 52 91  1  0
 53 92  1  1
 57 93  1  0
 58 94  1  0
M  CHG  1  28   1
M  END
