
     RDKit          3D

 57 57  0  0  0  0  0  0  0  0999 V2000
    2.9777   -0.4624   -2.1009 O   0  0  0  0  0  0  0  0  0  0  0  0
    2.5655    0.1315   -1.1075 C   0  0  0  0  0  0  0  0  0  0  0  0
    3.3753    1.0037   -0.4442 O   0  0  0  0  0  0  0  0  0  0  0  0
    3.0262    1.3965    0.9059 C   0  0  2  0  0  0  0  0  0  0  0  0
    4.2952    1.9419    1.5739 C   0  0  0  0  0  0  0  0  0  0  0  0
    4.7026    3.1173    0.8855 O   0  0  0  0  0  0  0  0  0  0  0  0
    6.1560    3.1596    0.2113 P   0  0  0  0  0  5  0  0  0  0  0  0
    6.5119    4.4041   -0.5281 O   0  0  0  0  0  0  0  0  0  0  0  0
    6.2458    1.8370   -0.6799 O   0  0  0  0  0  0  0  0  0  0  0  0
    7.1646    2.8336    1.4090 O   0  0  0  0  0  0  0  0  0  0  0  0
    2.4938    0.1772    1.6578 C   0  0  1  0  0  0  0  0  0  0  0  0
    2.1453    0.4677    3.0131 O   0  0  0  0  0  0  0  0  0  0  0  0
    1.2853   -0.4631    0.9412 C   0  0  2  0  0  0  0  0  0  0  0  0
    1.3775   -1.8874    1.0992 O   0  0  0  0  0  0  0  0  0  0  0  0
    1.1530   -0.0310   -0.5344 C   0  0  1  0  0  0  0  0  0  0  0  0
    0.5345    1.2830   -0.5494 O   0  0  0  0  0  0  0  0  0  0  0  0
    0.2771   -0.9606   -1.4508 C   0  0  0  0  0  0  0  0  0  0  0  0
    0.9305   -2.1530   -1.8700 O   0  0  0  0  0  0  0  0  0  0  0  0
   -0.0035   -0.2219   -2.6427 O   0  0  0  0  0  0  0  0  0  0  0  0
   -1.0785   -1.3774   -0.7568 C   0  0  2  0  0  0  0  0  0  0  0  0
   -0.9132   -2.5683    0.0341 O   0  0  0  0  0  0  0  0  0  0  0  0
   -2.2315   -1.6558   -1.7497 C   0  0  1  0  0  0  0  0  0  0  0  0
   -1.7542   -2.4401   -2.8680 O   0  0  0  0  0  0  0  0  0  0  0  0
   -3.4327   -2.4198   -1.1522 C   0  0  2  0  0  0  0  0  0  0  0  0
   -4.4597   -2.5134   -2.1647 O   0  0  0  0  0  0  0  0  0  0  0  0
   -4.0556   -1.8096    0.1142 C   0  0  2  0  0  0  0  0  0  0  0  0
   -5.0934   -2.7005    0.5689 O   0  0  0  0  0  0  0  0  0  0  0  0
   -4.6797   -0.4287   -0.1185 C   0  0  0  0  0  0  0  0  0  0  0  0
   -5.0016    0.1557    1.1401 O   0  0  0  0  0  0  0  0  0  0  0  0
   -4.3930    1.6036    1.4481 P   0  0  0  0  0  5  0  0  0  0  0  0
   -2.9062    1.7299    1.3980 O   0  0  0  0  0  0  0  0  0  0  0  0
   -5.1954    2.5567    0.4490 O   0  0  0  0  0  0  0  0  0  0  0  0
   -5.0577    1.9694    2.8493 O   0  0  0  0  0  0  0  0  0  0  0  0
    2.2953    2.2122    0.8596 H   0  0  0  0  0  0  0  0  0  0  0  0
    4.1061    2.2174    2.6173 H   0  0  0  0  0  0  0  0  0  0  0  0
    5.0917    1.1871    1.5569 H   0  0  0  0  0  0  0  0  0  0  0  0
    5.7949    1.9499   -1.5408 H   0  0  0  0  0  0  0  0  0  0  0  0
    8.0787    3.0634    1.1514 H   0  0  0  0  0  0  0  0  0  0  0  0
    3.2946   -0.5734    1.7095 H   0  0  0  0  0  0  0  0  0  0  0  0
    1.4858    1.1865    3.0192 H   0  0  0  0  0  0  0  0  0  0  0  0
    0.3693   -0.1660    1.4704 H   0  0  0  0  0  0  0  0  0  0  0  0
    1.4473   -2.0558    2.0624 H   0  0  0  0  0  0  0  0  0  0  0  0
    0.2923    1.4415   -1.4892 H   0  0  0  0  0  0  0  0  0  0  0  0
    1.8016   -1.8843   -2.2310 H   0  0  0  0  0  0  0  0  0  0  0  0
   -0.4532   -0.8668   -3.2283 H   0  0  0  0  0  0  0  0  0  0  0  0
   -1.4130   -0.5791   -0.0841 H   0  0  0  0  0  0  0  0  0  0  0  0
    0.0494   -2.6580    0.2429 H   0  0  0  0  0  0  0  0  0  0  0  0
   -2.5742   -0.7138   -2.1921 H   0  0  0  0  0  0  0  0  0  0  0  0
   -1.1776   -3.1396   -2.4850 H   0  0  0  0  0  0  0  0  0  0  0  0
   -3.1513   -3.4601   -0.9507 H   0  0  0  0  0  0  0  0  0  0  0  0
   -3.9918   -2.8083   -2.9754 H   0  0  0  0  0  0  0  0  0  0  0  0
   -3.3226   -1.7590    0.9261 H   0  0  0  0  0  0  0  0  0  0  0  0
   -5.6387   -2.8834   -0.2210 H   0  0  0  0  0  0  0  0  0  0  0  0
   -5.6140   -0.5072   -0.6847 H   0  0  0  0  0  0  0  0  0  0  0  0
   -3.9997    0.2281   -0.6670 H   0  0  0  0  0  0  0  0  0  0  0  0
   -5.0085    3.5056    0.5925 H   0  0  0  0  0  0  0  0  0  0  0  0
   -4.7243    1.3876    3.5604 H   0  0  0  0  0  0  0  0  0  0  0  0
  1  2  2  0
  2  3  1  0
  3  4  1  0
  4  5  1  0
  5  6  1  0
  6  7  1  0
  7  8  2  0
  7  9  1  0
  7 10  1  0
  4 11  1  0
 11 12  1  0
 11 13  1  0
 13 14  1  0
 13 15  1  0
 15 16  1  1
 15 17  1  0
 17 18  1  0
 17 19  1  0
 17 20  1  0
 20 21  1  0
 20 22  1  0
 22 23  1  0
 22 24  1  0
 24 25  1  0
 24 26  1  0
 26 27  1  0
 26 28  1  0
 28 29  1  0
 29 30  1  0
 30 31  2  0
 30 32  1  0
 30 33  1  0
 15  2  1  0
  4 34  1  6
  5 35  1  0
  5 36  1  0
  9 37  1  0
 10 38  1  0
 11 39  1  1
 12 40  1  0
 13 41  1  1
 14 42  1  0
 16 43  1  0
 18 44  1  0
 19 45  1  0
 20 46  1  1
 21 47  1  0
 22 48  1  6
 23 49  1  0
 24 50  1  1
 25 51  1  0
 26 52  1  1
 27 53  1  0
 28 54  1  0
 28 55  1  0
 32 56  1  0
 33 57  1  0
M  END
