
     RDKit          3D

 54 54  0  0  0  0  0  0  0  0999 V2000
   -0.7385   -2.0892   -1.2411 O   0  0  0  0  0  0  0  0  0  0  0  0
   -0.6858   -1.1507   -0.4332 C   0  0  0  0  0  0  0  0  0  0  0  0
   -1.8816   -0.8424    0.4431 C   0  0  0  0  0  0  0  0  0  0  0  0
   -2.9329   -0.0978   -0.3870 C   0  0  2  0  0  0  0  0  0  0  0  0
   -2.3701    1.1768   -0.7574 O   0  0  0  0  0  0  0  0  0  0  0  0
   -4.2463    0.1882    0.3678 C   0  0  2  0  0  0  0  0  0  0  0  0
   -3.9165    0.9321    1.5516 O   0  0  0  0  0  0  0  0  0  0  0  0
   -5.0457   -1.0685    0.7308 C   0  0  0  0  0  0  0  0  0  0  0  0
   -6.2131   -0.8325    1.4994 O   0  0  0  0  0  0  0  0  0  0  0  0
   -7.2719    0.3008    1.1224 P   0  0  0  0  0  5  0  0  0  0  0  0
   -8.6110    0.2095    1.7667 O   0  0  0  0  0  0  0  0  0  0  0  0
   -7.3360    0.3000   -0.4722 O   0  0  0  0  0  0  0  0  0  0  0  0
   -6.5208    1.6853    1.4627 O   0  0  0  0  0  0  0  0  0  0  0  0
    0.5697   -0.2262   -0.3502 C   0  0  0  0  0  0  0  0  0  0  0  0
    0.1499    1.0921   -0.0756 O   0  0  0  0  0  0  0  0  0  0  0  0
    1.1985   -0.1968   -1.6184 O   0  0  0  0  0  0  0  0  0  0  0  0
    1.5341   -0.7253    0.7746 C   0  0  2  0  0  0  0  0  0  0  0  0
    0.7506   -1.1147    1.9360 O   0  0  0  0  0  0  0  0  0  0  0  0
    2.4265    0.4331    1.2279 C   0  0  0  0  0  0  0  0  0  0  0  0
    2.1494    1.1081    2.2218 O   0  0  0  0  0  0  0  0  0  0  0  0
    3.5260    0.7080    0.4916 O   0  0  0  0  0  0  0  0  0  0  0  0
    4.3311   -0.3608   -0.0617 C   0  0  2  0  0  0  0  0  0  0  0  0
    5.1688    0.2301   -1.2003 C   0  0  0  0  0  0  0  0  0  0  0  0
    6.0423    1.2212   -0.6894 O   0  0  0  0  0  0  0  0  0  0  0  0
    5.5566    2.7491   -0.7565 P   0  0  0  0  0  5  0  0  0  0  0  0
    4.2090    3.0503   -1.3263 O   0  0  0  0  0  0  0  0  0  0  0  0
    6.7890    3.4979   -1.4510 O   0  0  0  0  0  0  0  0  0  0  0  0
    5.7239    3.2526    0.7590 O   0  0  0  0  0  0  0  0  0  0  0  0
    3.5337   -1.5683   -0.5458 C   0  0  1  0  0  0  0  0  0  0  0  0
    4.4033   -2.7041   -0.6856 O   0  0  0  0  0  0  0  0  0  0  0  0
    2.4519   -1.9129    0.4706 C   0  0  2  0  0  0  0  0  0  0  0  0
    1.7515   -3.0818    0.0010 O   0  0  0  0  0  0  0  0  0  0  0  0
   -1.5611   -0.2564    1.3095 H   0  0  0  0  0  0  0  0  0  0  0  0
   -2.2647   -1.8003    0.8133 H   0  0  0  0  0  0  0  0  0  0  0  0
   -3.1469   -0.6330   -1.3212 H   0  0  0  0  0  0  0  0  0  0  0  0
   -2.5486    1.7691    0.0107 H   0  0  0  0  0  0  0  0  0  0  0  0
   -4.8442    0.8621   -0.2610 H   0  0  0  0  0  0  0  0  0  0  0  0
   -4.7478    1.3843    1.8165 H   0  0  0  0  0  0  0  0  0  0  0  0
   -4.4323   -1.7456    1.3370 H   0  0  0  0  0  0  0  0  0  0  0  0
   -5.3390   -1.6104   -0.1788 H   0  0  0  0  0  0  0  0  0  0  0  0
   -8.1057   -0.2245   -0.8034 H   0  0  0  0  0  0  0  0  0  0  0  0
   -7.1657    2.4205    1.4723 H   0  0  0  0  0  0  0  0  0  0  0  0
   -0.5048    1.3239   -0.7716 H   0  0  0  0  0  0  0  0  0  0  0  0
    0.7696   -0.8800   -2.1543 H   0  0  0  0  0  0  0  0  0  0  0  0
    0.6366   -0.2999    2.4622 H   0  0  0  0  0  0  0  0  0  0  0  0
    5.0238   -0.6656    0.7391 H   0  0  0  0  0  0  0  0  0  0  0  0
    4.5317    0.6571   -1.9902 H   0  0  0  0  0  0  0  0  0  0  0  0
    5.7745   -0.5477   -1.6723 H   0  0  0  0  0  0  0  0  0  0  0  0
    7.5715    3.5000   -0.8868 H   0  0  0  0  0  0  0  0  0  0  0  0
    4.9275    2.9915    1.2683 H   0  0  0  0  0  0  0  0  0  0  0  0
    3.1112   -1.3999   -1.5410 H   0  0  0  0  0  0  0  0  0  0  0  0
    3.8064   -3.4681   -0.8389 H   0  0  0  0  0  0  0  0  0  0  0  0
    2.9452   -2.2450    1.4023 H   0  0  0  0  0  0  0  0  0  0  0  0
    1.0674   -3.2952    0.6696 H   0  0  0  0  0  0  0  0  0  0  0  0
  1  2  2  0
  2  3  1  0
  3  4  1  0
  4  5  1  0
  4  6  1  0
  6  7  1  0
  6  8  1  0
  8  9  1  0
  9 10  1  0
 10 11  2  0
 10 12  1  0
 10 13  1  0
  2 14  1  0
 14 15  1  0
 14 16  1  0
 14 17  1  0
 17 18  1  1
 17 19  1  0
 19 20  2  0
 19 21  1  0
 21 22  1  0
 22 23  1  0
 23 24  1  0
 24 25  1  0
 25 26  2  0
 25 27  1  0
 25 28  1  0
 22 29  1  0
 29 30  1  0
 29 31  1  0
 31 32  1  0
 31 17  1  0
  3 33  1  0
  3 34  1  0
  4 35  1  6
  5 36  1  0
  6 37  1  6
  7 38  1  0
  8 39  1  0
  8 40  1  0
 12 41  1  0
 13 42  1  0
 15 43  1  0
 16 44  1  0
 18 45  1  0
 22 46  1  1
 23 47  1  0
 23 48  1  0
 27 49  1  0
 28 50  1  0
 29 51  1  6
 30 52  1  0
 31 53  1  1
 32 54  1  0
M  END
