
     RDKit          3D

 44 44  0  0  0  0  0  0  0  0999 V2000
   -3.8571   -0.0970   -0.4912 O   0  0  0  0  0  0  0  0  0  0  0  0
   -2.6649   -0.0745   -0.8151 C   0  0  0  0  0  0  0  0  0  0  0  0
   -1.5420    0.0443    0.2212 C   0  0  2  0  0  0  0  0  0  0  0  0
   -2.0016   -0.5939    1.4385 O   0  0  0  0  0  0  0  0  0  0  0  0
   -1.3220    1.5374    0.5295 C   0  0  0  0  0  0  0  0  0  0  0  0
   -2.5208    2.1277    1.0433 O   0  0  0  0  0  0  0  0  0  0  0  0
   -3.4848    2.8827    0.0071 P   0  0  0  0  0  5  0  0  0  0  0  0
   -3.0761    2.8368   -1.4244 O   0  0  0  0  0  0  0  0  0  0  0  0
   -4.9164    2.2368    0.2972 O   0  0  0  0  0  0  0  0  0  0  0  0
   -3.6184    4.3601    0.5924 O   0  0  0  0  0  0  0  0  0  0  0  0
   -0.2321   -0.6376   -0.2971 C   0  0  0  0  0  0  0  0  0  0  0  0
   -0.0054   -0.2178   -1.6391 O   0  0  0  0  0  0  0  0  0  0  0  0
    0.8611   -0.1247    0.4756 O   0  0  0  0  0  0  0  0  0  0  0  0
    2.1065   -0.8462    0.4598 C   0  0  2  0  0  0  0  0  0  0  0  0
    2.7870   -0.8281   -0.9250 C   0  0  0  0  0  0  0  0  0  0  0  0
    2.7039    0.4367   -1.5647 O   0  0  0  0  0  0  0  0  0  0  0  0
    3.4822    1.6799   -0.9205 P   0  0  0  0  0  5  0  0  0  0  0  0
    4.7544    1.3985   -0.2201 O   0  0  0  0  0  0  0  0  0  0  0  0
    2.3723    2.4229   -0.0558 O   0  0  0  0  0  0  0  0  0  0  0  0
    3.6015    2.6774   -2.1570 O   0  0  0  0  0  0  0  0  0  0  0  0
    1.9300   -2.2842    0.9857 C   0  0  1  0  0  0  0  0  0  0  0  0
    2.4418   -2.3808    2.3322 O   0  0  0  0  0  0  0  0  0  0  0  0
    0.4547   -2.6991    1.0089 C   0  0  2  0  0  0  0  0  0  0  0  0
    0.3897   -4.1353    1.0802 O   0  0  0  0  0  0  0  0  0  0  0  0
   -0.2870   -2.1967   -0.2327 C   0  0  1  0  0  0  0  0  0  0  0  0
   -1.6103   -2.7462   -0.2276 O   0  0  0  0  0  0  0  0  0  0  0  0
   -2.3768   -0.0351   -1.8805 H   0  0  0  0  0  0  0  0  0  0  0  0
   -2.7491   -0.0402    1.7513 H   0  0  0  0  0  0  0  0  0  0  0  0
   -0.5922    1.6488    1.3282 H   0  0  0  0  0  0  0  0  0  0  0  0
   -0.9454    2.0954   -0.3344 H   0  0  0  0  0  0  0  0  0  0  0  0
   -4.9464    1.3303   -0.0915 H   0  0  0  0  0  0  0  0  0  0  0  0
   -4.0008    4.9654   -0.0689 H   0  0  0  0  0  0  0  0  0  0  0  0
    0.6231    0.5382   -1.5754 H   0  0  0  0  0  0  0  0  0  0  0  0
    2.7568   -0.2881    1.1471 H   0  0  0  0  0  0  0  0  0  0  0  0
    3.8383   -1.1211   -0.8409 H   0  0  0  0  0  0  0  0  0  0  0  0
    2.3154   -1.5491   -1.5951 H   0  0  0  0  0  0  0  0  0  0  0  0
    2.7105    3.2625    0.3037 H   0  0  0  0  0  0  0  0  0  0  0  0
    4.3179    2.4174   -2.7684 H   0  0  0  0  0  0  0  0  0  0  0  0
    2.5333   -2.9934    0.3941 H   0  0  0  0  0  0  0  0  0  0  0  0
    2.1808   -3.2720    2.6476 H   0  0  0  0  0  0  0  0  0  0  0  0
   -0.0360   -2.3413    1.9195 H   0  0  0  0  0  0  0  0  0  0  0  0
   -0.4912   -4.3761    0.7251 H   0  0  0  0  0  0  0  0  0  0  0  0
    0.1829   -2.6229   -1.1231 H   0  0  0  0  0  0  0  0  0  0  0  0
   -2.0670   -2.3977    0.5605 H   0  0  0  0  0  0  0  0  0  0  0  0
  1  2  2  0
  2  3  1  0
  3  4  1  1
  3  5  1  0
  5  6  1  0
  6  7  1  0
  7  8  2  0
  7  9  1  0
  7 10  1  0
  3 11  1  0
 11 12  1  0
 11 13  1  0
 13 14  1  0
 14 15  1  0
 15 16  1  0
 16 17  1  0
 17 18  2  0
 17 19  1  0
 17 20  1  0
 14 21  1  0
 21 22  1  0
 21 23  1  0
 23 24  1  0
 23 25  1  0
 25 26  1  0
 25 11  1  0
  2 27  1  0
  4 28  1  0
  5 29  1  0
  5 30  1  0
  9 31  1  0
 10 32  1  0
 12 33  1  0
 14 34  1  1
 15 35  1  0
 15 36  1  0
 19 37  1  0
 20 38  1  0
 21 39  1  6
 22 40  1  0
 23 41  1  1
 24 42  1  0
 25 43  1  6
 26 44  1  0
M  END
