
     RDKit          3D

 95 99  0  0  0  0  0  0  0  0999 V2000
   11.0863    3.2679    2.5731 N   0  0  0  0  0  0  0  0  0  0  0  0
   10.5223    2.5851    1.5014 C   0  0  0  0  0  0  0  0  0  0  0  0
   11.3547    2.0394    0.5832 N   0  0  0  0  0  0  0  0  0  0  0  0
   10.8074    1.3735   -0.4556 C   0  0  0  0  0  0  0  0  0  0  0  0
    9.5031    1.1394   -0.7180 N   0  0  0  0  0  0  0  0  0  0  0  0
    8.7269    1.6960    0.2281 C   0  0  0  0  0  0  0  0  0  0  0  0
    9.1371    2.4146    1.3409 C   0  0  0  0  0  0  0  0  0  0  0  0
    8.0523    2.8177    2.0957 N   0  0  0  0  0  0  0  0  0  0  0  0
    7.0040    2.3568    1.4443 C   0  0  0  0  0  0  0  0  0  0  0  0
    7.3606    1.6768    0.3090 N   0  0  0  0  0  0  0  0  0  0  0  0
    6.4833    1.0273   -0.6424 C   0  0  2  0  0  0  0  0  0  0  0  0
    5.1810    1.6480   -0.6043 O   0  0  0  0  0  0  0  0  0  0  0  0
    4.1894    0.6238   -0.8546 C   0  0  2  0  0  0  0  0  0  0  0  0
    3.1927    0.5960    0.3044 C   0  0  0  0  0  0  0  0  0  0  0  0
    3.8169    0.1521    1.5022 O   0  0  0  0  0  0  0  0  0  0  0  0
    2.8832   -0.4776    2.6575 P   0  0  0  0  0  5  0  0  0  0  0  0
    3.5471   -0.6209    3.9839 O   0  0  0  0  0  0  0  0  0  0  0  0
    1.6229    0.5069    2.6847 O   0  0  0  0  0  0  0  0  0  0  0  0
    2.3602   -1.8388    2.0256 O   0  0  0  0  0  0  0  0  0  0  0  0
    0.8372   -2.2682    1.9942 P   0  0  0  0  0  5  0  0  0  0  0  0
   -0.0124   -1.7261    3.0944 O   0  0  0  0  0  0  0  0  0  0  0  0
    0.9239   -3.8657    1.9218 O   0  0  0  0  0  0  0  0  0  0  0  0
    0.3890   -1.8957    0.5064 O   0  0  0  0  0  0  0  0  0  0  0  0
   -0.9595   -2.0984    0.1224 C   0  0  0  0  0  0  0  0  0  0  0  0
   -1.2716   -1.1396   -1.0220 C   0  0  1  0  0  0  0  0  0  0  0  0
   -2.4646   -1.5127   -1.7154 O   0  0  0  0  0  0  0  0  0  0  0  0
   -2.8789   -0.3317   -2.4491 C   0  0  1  0  0  0  0  0  0  0  0  0
   -4.3441   -0.1835   -2.4783 N   0  0  0  0  0  0  0  0  0  0  0  0
   -4.9271    0.5363   -3.5157 C   0  0  0  0  0  0  0  0  0  0  0  0
   -6.2489    0.6606   -3.6780 C   0  0  0  0  0  0  0  0  0  0  0  0
   -7.2091   -0.0109   -2.7343 C   0  0  0  0  0  0  0  0  0  0  0  0
   -6.5341   -0.7409   -1.5746 C   0  0  0  0  0  0  0  0  0  0  0  0
   -7.4373   -1.4461   -0.5647 C   0  0  0  0  0  0  0  0  0  0  0  0
   -6.7501   -2.6395   -0.0566 N   0  0  0  0  0  0  0  0  0  0  0  0
   -8.5845   -1.8945   -1.2589 O   0  0  0  0  0  0  0  0  0  0  0  0
   -7.8687   -0.5399    0.6620 C   0  0  2  0  0  0  0  0  0  0  0  0
   -6.7136   -0.2431    1.4839 O   0  0  0  0  0  0  0  0  0  0  0  0
   -8.8298   -1.2890    1.5947 C   0  0  0  0  0  0  0  0  0  0  0  0
   -8.9993   -2.5096    1.6152 O   0  0  0  0  0  0  0  0  0  0  0  0
   -8.5383    0.7760    0.2284 C   0  0  0  0  0  0  0  0  0  0  0  0
   -9.0987    1.4886    1.3289 O   0  0  0  0  0  0  0  0  0  0  0  0
   -9.5889    2.9801    1.0233 P   0  0  0  0  0  5  0  0  0  0  0  0
  -10.3964    3.1789   -0.2112 O   0  0  0  0  0  0  0  0  0  0  0  0
  -10.3473    3.4044    2.3604 O   0  0  0  0  0  0  0  0  0  0  0  0
   -8.2672    3.8713    1.0913 O   0  0  0  0  0  0  0  0  0  0  0  0
   -5.1824   -0.7734   -1.5331 C   0  0  0  0  0  0  0  0  0  0  0  0
   -2.1908    0.8901   -1.7977 C   0  0  2  0  0  0  0  0  0  0  0  0
   -1.1711    1.4407   -2.6634 O   0  0  0  0  0  0  0  0  0  0  0  0
   -1.5433    0.2898   -0.5566 C   0  0  2  0  0  0  0  0  0  0  0  0
   -0.3625    0.9984   -0.1992 O   0  0  0  0  0  0  0  0  0  0  0  0
    4.9430   -0.6938   -1.0443 C   0  0  1  0  0  0  0  0  0  0  0  0
    5.1757   -0.9162   -2.4435 O   0  0  0  0  0  0  0  0  0  0  0  0
    6.2624   -0.4453   -0.3352 C   0  0  1  0  0  0  0  0  0  0  0  0
    7.2778   -1.2829   -0.8671 O   0  0  0  0  0  0  0  0  0  0  0  0
    7.9184   -2.3593    0.1300 P   0  0  0  0  0  5  0  0  0  0  0  0
    8.4778   -1.8565    1.4124 O   0  0  0  0  0  0  0  0  0  0  0  0
    6.7568   -3.4441    0.2971 O   0  0  0  0  0  0  0  0  0  0  0  0
    8.9588   -3.1380   -0.7924 O   0  0  0  0  0  0  0  0  0  0  0  0
   10.4598    3.3341    3.3699 H   0  0  0  0  0  0  0  0  0  0  0  0
   12.0390    2.9795    2.7438 H   0  0  0  0  0  0  0  0  0  0  0  0
   11.5093    0.9687   -1.1805 H   0  0  0  0  0  0  0  0  0  0  0  0
    5.9747    2.4849    1.7522 H   0  0  0  0  0  0  0  0  0  0  0  0
    6.9046    1.1871   -1.6433 H   0  0  0  0  0  0  0  0  0  0  0  0
    3.6602    0.9139   -1.7679 H   0  0  0  0  0  0  0  0  0  0  0  0
    2.7974    1.6010    0.4868 H   0  0  0  0  0  0  0  0  0  0  0  0
    2.3629   -0.0688    0.0492 H   0  0  0  0  0  0  0  0  0  0  0  0
    1.0889    0.3679    3.4989 H   0  0  0  0  0  0  0  0  0  0  0  0
    1.5278   -4.1790    1.2227 H   0  0  0  0  0  0  0  0  0  0  0  0
   -1.0774   -3.1387   -0.2057 H   0  0  0  0  0  0  0  0  0  0  0  0
   -1.6459   -1.9444    0.9657 H   0  0  0  0  0  0  0  0  0  0  0  0
   -0.4329   -1.1555   -1.7335 H   0  0  0  0  0  0  0  0  0  0  0  0
   -2.5122   -0.4740   -3.4738 H   0  0  0  0  0  0  0  0  0  0  0  0
   -4.2321    0.9989   -4.2115 H   0  0  0  0  0  0  0  0  0  0  0  0
   -6.6510    1.2379   -4.5055 H   0  0  0  0  0  0  0  0  0  0  0  0
   -7.8922    0.7531   -2.3589 H   0  0  0  0  0  0  0  0  0  0  0  0
   -7.8043   -0.7224   -3.3197 H   0  0  0  0  0  0  0  0  0  0  0  0
   -6.5098   -3.2475   -0.8353 H   0  0  0  0  0  0  0  0  0  0  0  0
   -7.4452   -3.1556    0.4989 H   0  0  0  0  0  0  0  0  0  0  0  0
   -8.2798   -2.6011   -1.8520 H   0  0  0  0  0  0  0  0  0  0  0  0
   -6.1861   -1.0712    1.4702 H   0  0  0  0  0  0  0  0  0  0  0  0
   -9.3383   -0.6688    2.3525 H   0  0  0  0  0  0  0  0  0  0  0  0
   -9.3504    0.5841   -0.4834 H   0  0  0  0  0  0  0  0  0  0  0  0
   -7.7941    1.4382   -0.2288 H   0  0  0  0  0  0  0  0  0  0  0  0
  -11.2407    3.0198    2.4016 H   0  0  0  0  0  0  0  0  0  0  0  0
   -8.4718    4.8001    0.8741 H   0  0  0  0  0  0  0  0  0  0  0  0
   -4.6527   -1.3028   -0.7449 H   0  0  0  0  0  0  0  0  0  0  0  0
   -2.8670    1.7154   -1.5448 H   0  0  0  0  0  0  0  0  0  0  0  0
   -0.3916    1.5858   -2.0930 H   0  0  0  0  0  0  0  0  0  0  0  0
   -2.2533    0.2896    0.2812 H   0  0  0  0  0  0  0  0  0  0  0  0
   -0.6280    1.7431    0.3803 H   0  0  0  0  0  0  0  0  0  0  0  0
    4.4048   -1.5673   -0.6657 H   0  0  0  0  0  0  0  0  0  0  0  0
    5.9111   -1.5600   -2.5020 H   0  0  0  0  0  0  0  0  0  0  0  0
    6.1429   -0.6012    0.7443 H   0  0  0  0  0  0  0  0  0  0  0  0
    7.0501   -4.1644    0.8887 H   0  0  0  0  0  0  0  0  0  0  0  0
    9.7912   -2.6348   -0.8767 H   0  0  0  0  0  0  0  0  0  0  0  0
  1  2  1  0
  2  3  2  0
  3  4  1  0
  4  5  2  0
  5  6  1  0
  6  7  2  0
  7  8  1  0
  8  9  2  0
  9 10  1  0
 10 11  1  0
 11 12  1  0
 12 13  1  0
 13 14  1  0
 14 15  1  0
 15 16  1  0
 16 17  2  0
 16 18  1  0
 16 19  1  0
 19 20  1  0
 20 21  2  0
 20 22  1  0
 20 23  1  0
 23 24  1  0
 24 25  1  0
 25 26  1  0
 26 27  1  0
 27 28  1  0
 28 29  1  0
 29 30  2  0
 30 31  1  0
 31 32  1  0
 32 33  1  0
 33 34  1  0
 33 35  1  0
 33 36  1  0
 36 37  1  1
 36 38  1  0
 38 39  2  0
 36 40  1  0
 40 41  1  0
 41 42  1  0
 42 43  2  0
 42 44  1  0
 42 45  1  0
 32 46  2  0
 27 47  1  0
 47 48  1  0
 47 49  1  0
 49 50  1  0
 13 51  1  0
 51 52  1  0
 51 53  1  0
 53 54  1  0
 54 55  1  0
 55 56  2  0
 55 57  1  0
 55 58  1  0
  7  2  1  0
 53 11  1  0
 10  6  1  0
 49 25  1  0
 46 28  1  0
  1 59  1  0
  1 60  1  0
  4 61  1  0
  9 62  1  0
 11 63  1  6
 13 64  1  6
 14 65  1  0
 14 66  1  0
 18 67  1  0
 22 68  1  0
 24 69  1  0
 24 70  1  0
 25 71  1  6
 27 72  1  6
 29 73  1  0
 30 74  1  0
 31 75  1  0
 31 76  1  0
 34 77  1  0
 34 78  1  0
 35 79  1  0
 37 80  1  0
 38 81  1  0
 40 82  1  0
 40 83  1  0
 44 84  1  0
 45 85  1  0
 46 86  1  0
 47 87  1  1
 48 88  1  0
 49 89  1  1
 50 90  1  0
 51 91  1  1
 52 92  1  0
 53 93  1  1
 57 94  1  0
 58 95  1  0
M  END
