
     RDKit          3D

 47 46  0  0  0  0  0  0  0  0999 V2000
    0.6888   -1.2835   -0.9632 O   0  0  0  0  0  0  0  0  0  0  0  0
   -0.0543   -0.3188   -0.8685 C   0  0  0  0  0  0  0  0  0  0  0  0
   -0.6655    0.1845   -1.9656 O   0  0  0  0  0  0  0  0  0  0  0  0
   -0.3770    0.4719    0.4044 C   0  0  1  0  0  0  0  0  0  0  0  0
   -1.3334    1.5351    0.2002 O   0  0  0  0  0  0  0  0  0  0  0  0
   -1.0070   -0.5039    1.4333 C   0  0  0  0  0  0  0  0  0  0  0  0
   -1.1799    0.1880    2.6890 O   0  0  0  0  0  0  0  0  0  0  0  0
   -2.3455   -1.1794    1.0426 C   0  0  2  0  0  0  0  0  0  0  0  0
   -2.1452   -2.0942   -0.0415 O   0  0  0  0  0  0  0  0  0  0  0  0
   -3.4984   -0.2388    0.6801 C   0  0  0  0  0  0  0  0  0  0  0  0
   -4.6870   -1.0245    0.5631 O   0  0  0  0  0  0  0  0  0  0  0  0
   -6.0315   -0.2205    0.2406 P   0  0  0  0  0  5  0  0  0  0  0  0
   -6.2982    1.0010    1.0473 O   0  0  0  0  0  0  0  0  0  0  0  0
   -5.9549    0.0906   -1.3226 O   0  0  0  0  0  0  0  0  0  0  0  0
   -7.1730   -1.3310    0.2674 O   0  0  0  0  0  0  0  0  0  0  0  0
    0.9176    1.1515    0.9680 C   0  0  1  0  0  0  0  0  0  0  0  0
    1.7621    0.2927    1.7348 O   0  0  0  0  0  0  0  0  0  0  0  0
    1.7402    2.0159   -0.0265 C   0  0  2  0  0  0  0  0  0  0  0  0
    0.8391    2.7796   -0.8541 O   0  0  0  0  0  0  0  0  0  0  0  0
    2.8156    1.3714   -0.9302 C   0  0  2  0  0  0  0  0  0  0  0  0
    2.1979    0.9380   -2.1588 O   0  0  0  0  0  0  0  0  0  0  0  0
    3.6494    0.2444   -0.3247 C   0  0  0  0  0  0  0  0  0  0  0  0
    4.6363   -0.1235   -1.2850 O   0  0  0  0  0  0  0  0  0  0  0  0
    5.7217   -1.2313   -0.8968 P   0  0  0  0  0  5  0  0  0  0  0  0
    6.6910   -1.6330   -1.9516 O   0  0  0  0  0  0  0  0  0  0  0  0
    6.3496   -0.7993    0.5023 O   0  0  0  0  0  0  0  0  0  0  0  0
    4.8477   -2.4830   -0.4240 O   0  0  0  0  0  0  0  0  0  0  0  0
   -0.3409   -0.3915   -2.6894 H   0  0  0  0  0  0  0  0  0  0  0  0
   -0.9146    2.1377   -0.4557 H   0  0  0  0  0  0  0  0  0  0  0  0
   -0.2935   -1.3158    1.6251 H   0  0  0  0  0  0  0  0  0  0  0  0
   -1.6636    1.0138    2.4829 H   0  0  0  0  0  0  0  0  0  0  0  0
   -2.6703   -1.7892    1.8961 H   0  0  0  0  0  0  0  0  0  0  0  0
   -3.0224   -2.4781   -0.2308 H   0  0  0  0  0  0  0  0  0  0  0  0
   -3.6486    0.5205    1.4527 H   0  0  0  0  0  0  0  0  0  0  0  0
   -3.3331    0.2347   -0.2917 H   0  0  0  0  0  0  0  0  0  0  0  0
   -6.4694    0.8965   -1.5213 H   0  0  0  0  0  0  0  0  0  0  0  0
   -6.9772   -2.0550   -0.3521 H   0  0  0  0  0  0  0  0  0  0  0  0
    0.5488    1.8926    1.6943 H   0  0  0  0  0  0  0  0  0  0  0  0
    1.2623    0.0569    2.5437 H   0  0  0  0  0  0  0  0  0  0  0  0
    2.2832    2.7398    0.5962 H   0  0  0  0  0  0  0  0  0  0  0  0
    0.9980    2.4582   -1.7709 H   0  0  0  0  0  0  0  0  0  0  0  0
    3.4962    2.1708   -1.2517 H   0  0  0  0  0  0  0  0  0  0  0  0
    2.8953    0.4347   -2.6276 H   0  0  0  0  0  0  0  0  0  0  0  0
    4.1401    0.5785    0.5938 H   0  0  0  0  0  0  0  0  0  0  0  0
    3.0419   -0.6414   -0.1314 H   0  0  0  0  0  0  0  0  0  0  0  0
    5.8171   -1.1494    1.2389 H   0  0  0  0  0  0  0  0  0  0  0  0
    4.7446   -3.1146   -1.1621 H   0  0  0  0  0  0  0  0  0  0  0  0
  1  2  2  0
  2  3  1  0
  2  4  1  0
  4  5  1  6
  4  6  1  0
  6  7  1  0
  6  8  1  0
  8  9  1  0
  8 10  1  0
 10 11  1  0
 11 12  1  0
 12 13  2  0
 12 14  1  0
 12 15  1  0
  4 16  1  0
 16 17  1  0
 16 18  1  0
 18 19  1  0
 18 20  1  0
 20 21  1  0
 20 22  1  0
 22 23  1  0
 23 24  1  0
 24 25  2  0
 24 26  1  0
 24 27  1  0
  3 28  1  0
  5 29  1  0
  6 30  1  0
  7 31  1  0
  8 32  1  1
  9 33  1  0
 10 34  1  0
 10 35  1  0
 14 36  1  0
 15 37  1  0
 16 38  1  1
 17 39  1  0
 18 40  1  1
 19 41  1  0
 20 42  1  6
 21 43  1  0
 22 44  1  0
 22 45  1  0
 26 46  1  0
 27 47  1  0
M  END
