
     RDKit          3D

 40 39  0  0  0  0  0  0  0  0999 V2000
   -3.4221    2.2997    0.8091 C   0  0  0  0  0  0  0  0  0  0  0  0
   -2.7557    1.2251   -0.0568 C   0  0  0  0  0  0  0  0  0  0  0  0
   -2.7238    1.7049   -1.4203 O   0  0  0  0  0  0  0  0  0  0  0  0
   -3.6966    0.0103   -0.0727 C   0  0  0  0  0  0  0  0  0  0  0  0
   -4.4967   -0.2437   -0.9616 O   0  0  0  0  0  0  0  0  0  0  0  0
   -3.6230   -0.7763    1.0192 O   0  0  0  0  0  0  0  0  0  0  0  0
   -1.3183    0.8336    0.4224 C   0  0  2  0  0  0  0  0  0  0  0  0
   -1.3593    0.3416    1.7846 O   0  0  0  0  0  0  0  0  0  0  0  0
   -0.4547    2.1111    0.4574 C   0  0  0  0  0  0  0  0  0  0  0  0
   -0.1147    2.7357    1.4529 O   0  0  0  0  0  0  0  0  0  0  0  0
   -0.0933    2.5794   -0.7545 O   0  0  0  0  0  0  0  0  0  0  0  0
   -0.6689   -0.2682   -0.4721 C   0  0  1  0  0  0  0  0  0  0  0  0
   -0.6271    0.0519   -1.8761 O   0  0  0  0  0  0  0  0  0  0  0  0
    0.7725   -0.6542   -0.0436 C   0  0  2  0  0  0  0  0  0  0  0  0
    1.6846    0.3485   -0.5380 O   0  0  0  0  0  0  0  0  0  0  0  0
    1.1669   -2.0545   -0.5867 C   0  0  2  0  0  0  0  0  0  0  0  0
    0.2543   -3.0339   -0.0727 O   0  0  0  0  0  0  0  0  0  0  0  0
    2.6013   -2.4537   -0.2036 C   0  0  0  0  0  0  0  0  0  0  0  0
    3.5408   -1.7011   -0.9459 O   0  0  0  0  0  0  0  0  0  0  0  0
    4.6760   -0.9189   -0.1385 P   0  0  0  0  0  5  0  0  0  0  0  0
    5.6595   -1.7774    0.5783 O   0  0  0  0  0  0  0  0  0  0  0  0
    5.3552    0.0318   -1.2251 O   0  0  0  0  0  0  0  0  0  0  0  0
    3.8884    0.1241    0.7714 O   0  0  0  0  0  0  0  0  0  0  0  0
   -3.4747    2.0043    1.8621 H   0  0  0  0  0  0  0  0  0  0  0  0
   -4.4463    2.4932    0.4683 H   0  0  0  0  0  0  0  0  0  0  0  0
   -2.8943    3.2568    0.7369 H   0  0  0  0  0  0  0  0  0  0  0  0
   -3.6511    1.7255   -1.7391 H   0  0  0  0  0  0  0  0  0  0  0  0
   -4.2961   -1.4773    0.8566 H   0  0  0  0  0  0  0  0  0  0  0  0
   -2.0870   -0.3086    1.8603 H   0  0  0  0  0  0  0  0  0  0  0  0
    0.4573    3.3626   -0.5452 H   0  0  0  0  0  0  0  0  0  0  0  0
   -1.2964   -1.1607   -0.3798 H   0  0  0  0  0  0  0  0  0  0  0  0
   -1.2718    0.7743   -2.0474 H   0  0  0  0  0  0  0  0  0  0  0  0
    0.8479   -0.6734    1.0494 H   0  0  0  0  0  0  0  0  0  0  0  0
    1.3527    0.5441   -1.4453 H   0  0  0  0  0  0  0  0  0  0  0  0
    1.0850   -2.0482   -1.6807 H   0  0  0  0  0  0  0  0  0  0  0  0
    0.4863   -3.8853   -0.4871 H   0  0  0  0  0  0  0  0  0  0  0  0
    2.7677   -3.5116   -0.4352 H   0  0  0  0  0  0  0  0  0  0  0  0
    2.7550   -2.3479    0.8771 H   0  0  0  0  0  0  0  0  0  0  0  0
    6.2791    0.2174   -0.9616 H   0  0  0  0  0  0  0  0  0  0  0  0
    3.1410    0.5192    0.2612 H   0  0  0  0  0  0  0  0  0  0  0  0
  1  2  1  0
  2  3  1  0
  2  4  1  0
  4  5  2  0
  4  6  1  0
  2  7  1  0
  7  8  1  1
  7  9  1  0
  9 10  2  0
  9 11  1  0
  7 12  1  0
 12 13  1  0
 12 14  1  0
 14 15  1  0
 14 16  1  0
 16 17  1  0
 16 18  1  0
 18 19  1  0
 19 20  1  0
 20 21  2  0
 20 22  1  0
 20 23  1  0
  1 24  1  0
  1 25  1  0
  1 26  1  0
  3 27  1  0
  6 28  1  0
  8 29  1  0
 11 30  1  0
 12 31  1  6
 13 32  1  0
 14 33  1  1
 15 34  1  0
 16 35  1  6
 17 36  1  0
 18 37  1  0
 18 38  1  0
 22 39  1  0
 23 40  1  0
M  END
