
     RDKit          3D

 40 39  0  0  0  0  0  0  0  0999 V2000
   -2.7244    2.8553    1.0627 C   0  0  0  0  0  0  0  0  0  0  0  0
   -2.3617    1.4403    1.4372 C   0  0  0  0  0  0  0  0  0  0  0  0
   -2.0314    1.1546    2.5943 O   0  0  0  0  0  0  0  0  0  0  0  0
   -2.4877    0.3248    0.3658 C   0  0  0  0  0  0  0  0  0  0  0  0
   -3.8238    0.4142   -0.1288 O   0  0  0  0  0  0  0  0  0  0  0  0
   -2.3760   -0.9397    1.0019 O   0  0  0  0  0  0  0  0  0  0  0  0
   -1.4433    0.4446   -0.7772 C   0  0  2  0  0  0  0  0  0  0  0  0
   -1.7625    1.5996   -1.6190 O   0  0  0  0  0  0  0  0  0  0  0  0
   -1.5816   -0.7530   -1.7213 C   0  0  0  0  0  0  0  0  0  0  0  0
   -0.7331   -1.5744   -2.0197 O   0  0  0  0  0  0  0  0  0  0  0  0
   -2.8035   -0.8138   -2.3098 O   0  0  0  0  0  0  0  0  0  0  0  0
    0.0408    0.6079   -0.3504 C   0  0  1  0  0  0  0  0  0  0  0  0
    0.2379    1.9967    0.0504 O   0  0  0  0  0  0  0  0  0  0  0  0
    0.6130   -0.2432    0.8120 C   0  0  2  0  0  0  0  0  0  0  0  0
    1.8673    0.3796    1.2095 O   0  0  0  0  0  0  0  0  0  0  0  0
    0.8190   -1.7509    0.5550 C   0  0  2  0  0  0  0  0  0  0  0  0
    1.1976   -2.3702    1.7984 O   0  0  0  0  0  0  0  0  0  0  0  0
    1.8594   -2.1407   -0.5086 C   0  0  0  0  0  0  0  0  0  0  0  0
    3.1873   -1.9842   -0.0280 O   0  0  0  0  0  0  0  0  0  0  0  0
    4.0280   -0.7021   -0.4828 P   0  0  0  0  0  5  0  0  0  0  0  0
    3.4361    0.2062   -1.5038 O   0  0  0  0  0  0  0  0  0  0  0  0
    5.4503   -1.3136   -0.8685 O   0  0  0  0  0  0  0  0  0  0  0  0
    4.3601   -0.0184    0.9207 O   0  0  0  0  0  0  0  0  0  0  0  0
   -2.6471    3.4923    1.9493 H   0  0  0  0  0  0  0  0  0  0  0  0
   -3.7555    2.8937    0.7036 H   0  0  0  0  0  0  0  0  0  0  0  0
   -2.0477    3.2479    0.3044 H   0  0  0  0  0  0  0  0  0  0  0  0
   -3.9149   -0.2881   -0.8016 H   0  0  0  0  0  0  0  0  0  0  0  0
   -2.5242   -0.7768    1.9587 H   0  0  0  0  0  0  0  0  0  0  0  0
   -2.6930    1.4775   -1.9026 H   0  0  0  0  0  0  0  0  0  0  0  0
   -2.7260   -1.5764   -2.9294 H   0  0  0  0  0  0  0  0  0  0  0  0
    0.6921    0.4975   -1.2253 H   0  0  0  0  0  0  0  0  0  0  0  0
   -0.0299    2.5258   -0.7320 H   0  0  0  0  0  0  0  0  0  0  0  0
   -0.0115   -0.1294    1.7018 H   0  0  0  0  0  0  0  0  0  0  0  0
    1.6331    1.3400    1.2063 H   0  0  0  0  0  0  0  0  0  0  0  0
   -0.1425   -2.1950    0.2876 H   0  0  0  0  0  0  0  0  0  0  0  0
    2.1477   -2.1691    1.9155 H   0  0  0  0  0  0  0  0  0  0  0  0
    1.7148   -1.6125   -1.4535 H   0  0  0  0  0  0  0  0  0  0  0  0
    1.7486   -3.2095   -0.7220 H   0  0  0  0  0  0  0  0  0  0  0  0
    6.0871   -0.6048   -1.0623 H   0  0  0  0  0  0  0  0  0  0  0  0
    3.5010    0.2672    1.3112 H   0  0  0  0  0  0  0  0  0  0  0  0
  1  2  1  0
  2  3  2  0
  2  4  1  0
  4  5  1  0
  4  6  1  0
  4  7  1  0
  7  8  1  6
  7  9  1  0
  9 10  2  0
  9 11  1  0
  7 12  1  0
 12 13  1  0
 12 14  1  0
 14 15  1  0
 14 16  1  0
 16 17  1  0
 16 18  1  0
 18 19  1  0
 19 20  1  0
 20 21  2  0
 20 22  1  0
 20 23  1  0
  1 24  1  0
  1 25  1  0
  1 26  1  0
  5 27  1  0
  6 28  1  0
  8 29  1  0
 11 30  1  0
 12 31  1  6
 13 32  1  0
 14 33  1  1
 15 34  1  0
 16 35  1  6
 17 36  1  0
 18 37  1  0
 18 38  1  0
 22 39  1  0
 23 40  1  0
M  END
