
     RDKit          3D

 44 43  0  0  0  0  0  0  0  0999 V2000
   -2.7241    0.6009   -2.8695 O   0  0  0  0  0  0  0  0  0  0  0  0
   -3.1979   -0.3220   -2.2056 C   0  0  0  0  0  0  0  0  0  0  0  0
   -2.6183   -0.7918   -0.8786 C   0  0  2  0  0  0  0  0  0  0  0  0
   -2.9841   -2.1789   -0.7626 O   0  0  0  0  0  0  0  0  0  0  0  0
   -3.2897    0.0240    0.2342 C   0  0  0  0  0  0  0  0  0  0  0  0
   -4.7100   -0.0174    0.1188 O   0  0  0  0  0  0  0  0  0  0  0  0
   -5.5425    0.5102    1.3792 P   0  0  0  0  0  5  0  0  0  0  0  0
   -5.1736    1.8547    1.8983 O   0  0  0  0  0  0  0  0  0  0  0  0
   -5.4401   -0.6626    2.4514 O   0  0  0  0  0  0  0  0  0  0  0  0
   -7.0565    0.3935    0.8954 O   0  0  0  0  0  0  0  0  0  0  0  0
   -1.0668   -0.6135   -0.8921 C   0  0  0  0  0  0  0  0  0  0  0  0
   -0.5161   -1.4887   -1.8761 O   0  0  0  0  0  0  0  0  0  0  0  0
   -0.6607    0.7008   -1.2263 O   0  0  0  0  0  0  0  0  0  0  0  0
   -0.4886   -1.0571    0.4865 C   0  0  0  0  0  0  0  0  0  0  0  0
   -0.4867   -2.2388    0.8442 O   0  0  0  0  0  0  0  0  0  0  0  0
    0.1306    0.0021    1.3702 C   0  0  0  0  0  0  0  0  0  0  0  0
    1.6538   -0.1186    1.4268 C   0  0  2  0  0  0  0  0  0  0  0  0
    2.1353    0.8041    2.4125 O   0  0  0  0  0  0  0  0  0  0  0  0
    2.3652    0.1324    0.0806 C   0  0  2  0  0  0  0  0  0  0  0  0
    1.9742   -0.8408   -0.9033 O   0  0  0  0  0  0  0  0  0  0  0  0
    3.8920    0.0862    0.2299 C   0  0  0  0  0  0  0  0  0  0  0  0
    4.4577    0.2631   -1.0679 O   0  0  0  0  0  0  0  0  0  0  0  0
    5.9959    0.6913   -1.1596 P   0  0  0  0  0  5  0  0  0  0  0  0
    6.5979    0.6841   -2.5208 O   0  0  0  0  0  0  0  0  0  0  0  0
    6.0592    2.1342   -0.4826 O   0  0  0  0  0  0  0  0  0  0  0  0
    6.7785   -0.2255   -0.1180 O   0  0  0  0  0  0  0  0  0  0  0  0
   -4.1354   -0.8136   -2.5199 H   0  0  0  0  0  0  0  0  0  0  0  0
   -2.2631   -2.6958   -1.1797 H   0  0  0  0  0  0  0  0  0  0  0  0
   -3.0191   -0.3841    1.2138 H   0  0  0  0  0  0  0  0  0  0  0  0
   -2.9812    1.0742    0.1925 H   0  0  0  0  0  0  0  0  0  0  0  0
   -5.9083   -0.4356    3.2740 H   0  0  0  0  0  0  0  0  0  0  0  0
   -7.3085    1.1452    0.3304 H   0  0  0  0  0  0  0  0  0  0  0  0
    0.4416   -1.5239   -1.6585 H   0  0  0  0  0  0  0  0  0  0  0  0
   -1.1312    0.9225   -2.0603 H   0  0  0  0  0  0  0  0  0  0  0  0
   -0.1769    1.0084    1.0706 H   0  0  0  0  0  0  0  0  0  0  0  0
   -0.2899   -0.1253    2.3762 H   0  0  0  0  0  0  0  0  0  0  0  0
    1.9113   -1.1261    1.7757 H   0  0  0  0  0  0  0  0  0  0  0  0
    1.8079    1.6941    2.1928 H   0  0  0  0  0  0  0  0  0  0  0  0
    2.0851    1.1161   -0.3156 H   0  0  0  0  0  0  0  0  0  0  0  0
    2.6587   -0.7702   -1.6041 H   0  0  0  0  0  0  0  0  0  0  0  0
    4.2463    0.8688    0.9070 H   0  0  0  0  0  0  0  0  0  0  0  0
    4.2124   -0.8918    0.6026 H   0  0  0  0  0  0  0  0  0  0  0  0
    6.0297    2.8313   -1.1638 H   0  0  0  0  0  0  0  0  0  0  0  0
    7.7361   -0.2202   -0.2985 H   0  0  0  0  0  0  0  0  0  0  0  0
  1  2  2  0
  2  3  1  0
  3  4  1  1
  3  5  1  0
  5  6  1  0
  6  7  1  0
  7  8  2  0
  7  9  1  0
  7 10  1  0
  3 11  1  0
 11 12  1  0
 11 13  1  0
 11 14  1  0
 14 15  2  0
 14 16  1  0
 16 17  1  0
 17 18  1  0
 17 19  1  0
 19 20  1  0
 19 21  1  0
 21 22  1  0
 22 23  1  0
 23 24  2  0
 23 25  1  0
 23 26  1  0
  2 27  1  0
  4 28  1  0
  5 29  1  0
  5 30  1  0
  9 31  1  0
 10 32  1  0
 12 33  1  0
 13 34  1  0
 16 35  1  0
 16 36  1  0
 17 37  1  1
 18 38  1  0
 19 39  1  6
 20 40  1  0
 21 41  1  0
 21 42  1  0
 25 43  1  0
 26 44  1  0
M  END
