
     RDKit          3D

 34 33  0  0  0  0  0  0  0  0999 V2000
    0.0811    1.3945    3.1541 O   0  0  0  0  0  0  0  0  0  0  0  0
    0.1097    1.1953    1.9383 C   0  0  0  0  0  0  0  0  0  0  0  0
    0.6548   -0.0989    1.3419 C   0  0  2  0  0  0  0  0  0  0  0  0
    0.8092   -1.0045    2.4747 O   0  0  0  0  0  0  0  0  0  0  0  0
    2.0361    0.2066    0.7568 C   0  0  0  0  0  0  0  0  0  0  0  0
    2.5810   -0.9520    0.1462 O   0  0  0  0  0  0  0  0  0  0  0  0
    3.7671   -0.7353   -0.9013 P   0  0  0  0  0  5  0  0  0  0  0  0
    5.0015   -0.1141   -0.3480 O   0  0  0  0  0  0  0  0  0  0  0  0
    3.0828    0.0594   -2.1004 O   0  0  0  0  0  0  0  0  0  0  0  0
    4.0116   -2.1773   -1.5332 O   0  0  0  0  0  0  0  0  0  0  0  0
   -0.3172   -0.8356    0.3872 C   0  0  0  0  0  0  0  0  0  0  0  0
   -1.5451   -1.1245    1.1083 O   0  0  0  0  0  0  0  0  0  0  0  0
   -0.6496   -0.2695   -1.0195 C   0  0  2  0  0  0  0  0  0  0  0  0
    0.4784   -0.3383   -1.9091 O   0  0  0  0  0  0  0  0  0  0  0  0
   -1.2440    1.1437   -1.0837 C   0  0  0  0  0  0  0  0  0  0  0  0
   -2.2122    1.3805   -0.0848 O   0  0  0  0  0  0  0  0  0  0  0  0
   -3.7206    0.9186   -0.3651 P   0  0  0  0  0  5  0  0  0  0  0  0
   -4.3365    1.4745   -1.6010 O   0  0  0  0  0  0  0  0  0  0  0  0
   -3.6608   -0.6704   -0.2945 O   0  0  0  0  0  0  0  0  0  0  0  0
   -4.5087    1.2832    0.9697 O   0  0  0  0  0  0  0  0  0  0  0  0
   -0.1848    1.9908    1.2403 H   0  0  0  0  0  0  0  0  0  0  0  0
    1.0566   -0.4494    3.2452 H   0  0  0  0  0  0  0  0  0  0  0  0
    2.7277    0.5180    1.5482 H   0  0  0  0  0  0  0  0  0  0  0  0
    1.9718    1.0221    0.0280 H   0  0  0  0  0  0  0  0  0  0  0  0
    2.1913   -0.3161   -2.2644 H   0  0  0  0  0  0  0  0  0  0  0  0
    4.9170   -2.4776   -1.3290 H   0  0  0  0  0  0  0  0  0  0  0  0
    0.1190   -1.8287    0.2064 H   0  0  0  0  0  0  0  0  0  0  0  0
   -1.2294   -1.4999    1.9636 H   0  0  0  0  0  0  0  0  0  0  0  0
   -1.4016   -0.9496   -1.4406 H   0  0  0  0  0  0  0  0  0  0  0  0
    0.0936   -0.3375   -2.8117 H   0  0  0  0  0  0  0  0  0  0  0  0
   -1.6678    1.3264   -2.0790 H   0  0  0  0  0  0  0  0  0  0  0  0
   -0.4475    1.8886   -0.9751 H   0  0  0  0  0  0  0  0  0  0  0  0
   -3.0984   -0.9623    0.4629 H   0  0  0  0  0  0  0  0  0  0  0  0
   -5.4661    1.3394    0.7958 H   0  0  0  0  0  0  0  0  0  0  0  0
  1  2  2  0
  2  3  1  0
  3  4  1  1
  3  5  1  0
  5  6  1  0
  6  7  1  0
  7  8  2  0
  7  9  1  0
  7 10  1  0
  3 11  1  0
 11 12  1  0
 11 13  1  0
 13 14  1  0
 13 15  1  0
 15 16  1  0
 16 17  1  0
 17 18  2  0
 17 19  1  0
 17 20  1  0
  2 21  1  0
  4 22  1  0
  5 23  1  0
  5 24  1  0
  9 25  1  0
 10 26  1  0
 11 27  1  0
 12 28  1  0
 13 29  1  6
 14 30  1  0
 15 31  1  0
 15 32  1  0
 19 33  1  0
 20 34  1  0
M  END
