
     RDKit          3D

 27 26  0  0  0  0  0  0  0  0999 V2000
   -2.1093    1.4791   -0.5073 C   0  0  0  0  0  0  0  0  0  0  0  0
   -2.3552    0.2800    0.3670 C   0  0  0  0  0  0  0  0  0  0  0  0
   -3.4031    0.1780    1.0127 O   0  0  0  0  0  0  0  0  0  0  0  0
   -1.2785   -0.8325    0.4340 C   0  0  0  0  0  0  0  0  0  0  0  0
   -1.0027   -1.3382   -0.8594 O   0  0  0  0  0  0  0  0  0  0  0  0
   -1.8050   -1.9660    1.1460 O   0  0  0  0  0  0  0  0  0  0  0  0
   -0.0023   -0.4159    1.2172 C   0  0  2  0  0  0  0  0  0  0  0  0
    0.8093   -1.6029    1.4115 O   0  0  0  0  0  0  0  0  0  0  0  0
   -0.4210    0.0585    2.6033 C   0  0  0  0  0  0  0  0  0  0  0  0
   -0.4528    1.2403    2.9368 O   0  0  0  0  0  0  0  0  0  0  0  0
    0.8967    0.6389    0.5601 C   0  0  0  0  0  0  0  0  0  0  0  0
    1.0362    0.3985   -0.8353 O   0  0  0  0  0  0  0  0  0  0  0  0
    2.5182    0.3190   -1.4359 P   0  0  0  0  0  5  0  0  0  0  0  0
    3.4701    1.3898   -1.0412 O   0  0  0  0  0  0  0  0  0  0  0  0
    2.2552    0.2315   -3.0064 O   0  0  0  0  0  0  0  0  0  0  0  0
    2.9923   -1.1634   -1.1047 O   0  0  0  0  0  0  0  0  0  0  0  0
   -1.6186    2.2674    0.0678 H   0  0  0  0  0  0  0  0  0  0  0  0
   -1.5087    1.2109   -1.3797 H   0  0  0  0  0  0  0  0  0  0  0  0
   -3.0715    1.8533   -0.8749 H   0  0  0  0  0  0  0  0  0  0  0  0
   -0.0388   -1.2781   -1.0057 H   0  0  0  0  0  0  0  0  0  0  0  0
   -2.7650   -1.9483    0.9588 H   0  0  0  0  0  0  0  0  0  0  0  0
    0.1779   -2.3551    1.4582 H   0  0  0  0  0  0  0  0  0  0  0  0
   -0.7540   -0.7301    3.3000 H   0  0  0  0  0  0  0  0  0  0  0  0
    1.8831    0.6327    1.0376 H   0  0  0  0  0  0  0  0  0  0  0  0
    0.4953    1.6495    0.6712 H   0  0  0  0  0  0  0  0  0  0  0  0
    2.1367    1.1128   -3.4033 H   0  0  0  0  0  0  0  0  0  0  0  0
    3.9157   -1.3094   -1.3760 H   0  0  0  0  0  0  0  0  0  0  0  0
  1  2  1  0
  2  3  2  0
  2  4  1  0
  4  5  1  0
  4  6  1  0
  4  7  1  0
  7  8  1  1
  7  9  1  0
  9 10  2  0
  7 11  1  0
 11 12  1  0
 12 13  1  0
 13 14  2  0
 13 15  1  0
 13 16  1  0
  1 17  1  0
  1 18  1  0
  1 19  1  0
  5 20  1  0
  6 21  1  0
  8 22  1  0
  9 23  1  0
 11 24  1  0
 11 25  1  0
 15 26  1  0
 16 27  1  0
M  END
