
     RDKit          3D

 77 81  0  0  0  0  0  0  0  0999 V2000
   10.3430   -2.9892    0.1997 N   0  0  0  0  0  0  0  0  0  0  0  0
   10.5446   -1.7157   -0.2454 C   0  0  0  0  0  0  0  0  0  0  0  0
   11.6590   -1.2220   -0.3230 O   0  0  0  0  0  0  0  0  0  0  0  0
    9.3608   -0.9332   -0.6487 C   0  0  0  0  0  0  0  0  0  0  0  0
    9.4797    0.0230   -1.6544 C   0  0  0  0  0  0  0  0  0  0  0  0
    8.3721    0.7846   -2.0108 C   0  0  0  0  0  0  0  0  0  0  0  0
    7.1689    0.5977   -1.3400 C   0  0  0  0  0  0  0  0  0  0  0  0
    7.0754   -0.3113   -0.3388 N   0  0  0  0  0  4  0  0  0  0  0  0
    5.8083   -0.5014    0.4048 C   0  0  2  0  0  0  0  0  0  0  0  0
    4.6956    0.1412   -0.2235 O   0  0  0  0  0  0  0  0  0  0  0  0
    3.7456    0.3089    0.8500 C   0  0  2  0  0  0  0  0  0  0  0  0
    2.5785    1.1898    0.4149 C   0  0  0  0  0  0  0  0  0  0  0  0
    1.9939    0.7572   -0.8085 O   0  0  0  0  0  0  0  0  0  0  0  0
    1.4357   -0.7413   -0.9601 P   0  0  0  0  0  5  0  0  0  0  0  0
    2.4882   -1.8019   -0.8860 O   0  0  0  0  0  0  0  0  0  0  0  0
    0.7187   -0.7005   -2.3836 O   0  0  0  0  0  0  0  0  0  0  0  0
    0.2633   -0.8767    0.0898 O   0  0  0  0  0  0  0  0  0  0  0  0
   -1.1611   -0.1942    0.0152 P   0  0  0  0  0  5  0  0  0  0  0  0
   -2.0347   -0.5900   -1.1245 O   0  0  0  0  0  0  0  0  0  0  0  0
   -0.8633    1.3778    0.0570 O   0  0  0  0  0  0  0  0  0  0  0  0
   -1.8322   -0.4733    1.4465 O   0  0  0  0  0  0  0  0  0  0  0  0
   -3.0747    0.1535    1.7143 C   0  0  0  0  0  0  0  0  0  0  0  0
   -4.1662   -0.8658    2.0635 C   0  0  1  0  0  0  0  0  0  0  0  0
   -5.3577   -0.1290    2.4127 O   0  0  0  0  0  0  0  0  0  0  0  0
   -6.2403   -0.0992    1.2629 C   0  0  1  0  0  0  0  0  0  0  0  0
   -6.4777    1.2972    0.9205 N   0  0  0  0  0  0  0  0  0  0  0  0
   -6.4350    2.3560    1.7954 C   0  0  0  0  0  0  0  0  0  0  0  0
   -6.6414    3.5084    1.1913 N   0  0  0  0  0  0  0  0  0  0  0  0
   -6.8683    3.1778   -0.1278 C   0  0  0  0  0  0  0  0  0  0  0  0
   -7.1493    3.9543   -1.2644 C   0  0  0  0  0  0  0  0  0  0  0  0
   -7.2544    5.3428   -1.2374 N   0  0  0  0  0  0  0  0  0  0  0  0
   -7.3458    3.3224   -2.4448 N   0  0  0  0  0  0  0  0  0  0  0  0
   -7.2527    1.9756   -2.4764 C   0  0  0  0  0  0  0  0  0  0  0  0
   -6.9885    1.1354   -1.4569 N   0  0  0  0  0  0  0  0  0  0  0  0
   -6.8028    1.8060   -0.3094 C   0  0  0  0  0  0  0  0  0  0  0  0
   -5.5828   -0.9399    0.1562 C   0  0  2  0  0  0  0  0  0  0  0  0
   -6.5632   -1.7076   -0.5273 O   0  0  0  0  0  0  0  0  0  0  0  0
   -6.1223   -2.5302   -1.8173 P   0  0  0  0  0  5  0  0  0  0  0  0
   -5.1549   -1.8914   -2.7468 O   0  0  0  0  0  0  0  0  0  0  0  0
   -5.5953   -3.9052   -1.1974 O   0  0  0  0  0  0  0  0  0  0  0  0
   -7.5134   -2.9967   -2.4374 O   0  0  0  0  0  0  0  0  0  0  0  0
   -4.5786   -1.7896    0.9191 C   0  0  2  0  0  0  0  0  0  0  0  0
   -5.2119   -2.9571    1.4529 O   0  0  0  0  0  0  0  0  0  0  0  0
    4.5965    0.8849    1.9759 C   0  0  1  0  0  0  0  0  0  0  0  0
    4.0563    0.6768    3.2701 O   0  0  0  0  0  0  0  0  0  0  0  0
    5.9082    0.1046    1.8152 C   0  0  1  0  0  0  0  0  0  0  0  0
    6.0468   -0.9335    2.7868 O   0  0  0  0  0  0  0  0  0  0  0  0
    8.1446   -1.0787    0.0065 C   0  0  0  0  0  0  0  0  0  0  0  0
    9.5369   -3.5504   -0.0452 H   0  0  0  0  0  0  0  0  0  0  0  0
   11.1959   -3.5210    0.3547 H   0  0  0  0  0  0  0  0  0  0  0  0
   10.4337    0.1723   -2.1628 H   0  0  0  0  0  0  0  0  0  0  0  0
    8.4507    1.5221   -2.8062 H   0  0  0  0  0  0  0  0  0  0  0  0
    6.2817    1.1705   -1.6029 H   0  0  0  0  0  0  0  0  0  0  0  0
    5.6167   -1.5837    0.4216 H   0  0  0  0  0  0  0  0  0  0  0  0
    3.3626   -0.6775    1.1388 H   0  0  0  0  0  0  0  0  0  0  0  0
    2.9266    2.2139    0.2361 H   0  0  0  0  0  0  0  0  0  0  0  0
    1.8078    1.2321    1.1908 H   0  0  0  0  0  0  0  0  0  0  0  0
    0.5998   -1.5812   -2.7889 H   0  0  0  0  0  0  0  0  0  0  0  0
   -1.0961    1.7954   -0.7961 H   0  0  0  0  0  0  0  0  0  0  0  0
   -2.9278    0.8286    2.5650 H   0  0  0  0  0  0  0  0  0  0  0  0
   -3.3854    0.7937    0.8810 H   0  0  0  0  0  0  0  0  0  0  0  0
   -3.8589   -1.4492    2.9389 H   0  0  0  0  0  0  0  0  0  0  0  0
   -7.2109   -0.5045    1.5707 H   0  0  0  0  0  0  0  0  0  0  0  0
   -6.2381    2.2284    2.8544 H   0  0  0  0  0  0  0  0  0  0  0  0
   -7.8309    5.6705   -2.0013 H   0  0  0  0  0  0  0  0  0  0  0  0
   -7.4811    5.6928   -0.3138 H   0  0  0  0  0  0  0  0  0  0  0  0
   -7.4035    1.5103   -3.4467 H   0  0  0  0  0  0  0  0  0  0  0  0
   -5.0426   -0.3049   -0.5549 H   0  0  0  0  0  0  0  0  0  0  0  0
   -5.2280   -4.4666   -1.9093 H   0  0  0  0  0  0  0  0  0  0  0  0
   -8.1237   -3.3255   -1.7543 H   0  0  0  0  0  0  0  0  0  0  0  0
   -3.7376   -2.1253    0.3094 H   0  0  0  0  0  0  0  0  0  0  0  0
   -5.4754   -3.5131    0.6896 H   0  0  0  0  0  0  0  0  0  0  0  0
    4.7893    1.9550    1.8167 H   0  0  0  0  0  0  0  0  0  0  0  0
    3.5191    1.4565    3.5219 H   0  0  0  0  0  0  0  0  0  0  0  0
    6.7677    0.7746    1.9273 H   0  0  0  0  0  0  0  0  0  0  0  0
    5.5314   -0.6362    3.5713 H   0  0  0  0  0  0  0  0  0  0  0  0
    8.0047   -1.7792    0.8269 H   0  0  0  0  0  0  0  0  0  0  0  0
  1  2  1  0
  2  3  2  0
  2  4  1  0
  4  5  2  0
  5  6  1  0
  6  7  2  0
  7  8  1  0
  8  9  1  0
  9 10  1  0
 10 11  1  0
 11 12  1  0
 12 13  1  0
 13 14  1  0
 14 15  2  0
 14 16  1  0
 14 17  1  0
 17 18  1  0
 18 19  2  0
 18 20  1  0
 18 21  1  0
 21 22  1  0
 22 23  1  0
 23 24  1  0
 24 25  1  0
 25 26  1  0
 26 27  1  0
 27 28  2  0
 28 29  1  0
 29 30  2  0
 30 31  1  0
 30 32  1  0
 32 33  2  0
 33 34  1  0
 34 35  2  0
 25 36  1  0
 36 37  1  0
 37 38  1  0
 38 39  2  0
 38 40  1  0
 38 41  1  0
 36 42  1  0
 42 43  1  0
 11 44  1  0
 44 45  1  0
 44 46  1  0
 46 47  1  0
  8 48  2  0
 48  4  1  0
 46  9  1  0
 42 23  1  0
 35 26  1  0
 35 29  1  0
  1 49  1  0
  1 50  1  0
  5 51  1  0
  6 52  1  0
  7 53  1  0
  9 54  1  1
 11 55  1  1
 12 56  1  0
 12 57  1  0
 16 58  1  0
 20 59  1  0
 22 60  1  0
 22 61  1  0
 23 62  1  1
 25 63  1  1
 27 64  1  0
 31 65  1  0
 31 66  1  0
 33 67  1  0
 36 68  1  6
 40 69  1  0
 41 70  1  0
 42 71  1  6
 43 72  1  0
 44 73  1  6
 45 74  1  0
 46 75  1  6
 47 76  1  0
 48 77  1  0
M  CHG  1   8   1
M  END
