
     RDKit          3D

 30 29  0  0  0  0  0  0  0  0999 V2000
   -3.6485    1.4324    0.9209 O   0  0  0  0  0  0  0  0  0  0  0  0
   -2.5701    1.5817    0.3644 C   0  0  0  0  0  0  0  0  0  0  0  0
   -1.5395    2.1808    0.9889 O   0  0  0  0  0  0  0  0  0  0  0  0
   -2.2317    1.1233   -1.0453 C   0  0  2  0  0  0  0  0  0  0  0  0
   -3.2911    1.5398   -1.9249 O   0  0  0  0  0  0  0  0  0  0  0  0
   -2.0890   -0.4126   -1.0810 C   0  0  1  0  0  0  0  0  0  0  0  0
   -1.8848   -0.8578   -2.4334 O   0  0  0  0  0  0  0  0  0  0  0  0
   -0.9729   -1.0020   -0.1828 C   0  0  2  0  0  0  0  0  0  0  0  0
   -1.3228   -0.9250    1.1993 O   0  0  0  0  0  0  0  0  0  0  0  0
    0.4102   -0.3556   -0.4077 C   0  0  2  0  0  0  0  0  0  0  0  0
    0.7058   -0.3048   -1.8127 O   0  0  0  0  0  0  0  0  0  0  0  0
    1.5159   -1.1392    0.3108 C   0  0  0  0  0  0  0  0  0  0  0  0
    2.7690   -0.5054    0.0609 O   0  0  0  0  0  0  0  0  0  0  0  0
    3.3337    0.4614    1.2034 P   0  0  0  0  0  5  0  0  0  0  0  0
    2.4026    1.4989    1.7212 O   0  0  0  0  0  0  0  0  0  0  0  0
    4.7072    0.9977    0.6019 O   0  0  0  0  0  0  0  0  0  0  0  0
    3.8644   -0.5171    2.3457 O   0  0  0  0  0  0  0  0  0  0  0  0
   -1.8702    2.3996    1.8848 H   0  0  0  0  0  0  0  0  0  0  0  0
   -1.3305    1.6269   -1.4065 H   0  0  0  0  0  0  0  0  0  0  0  0
   -4.0963    1.0663   -1.6481 H   0  0  0  0  0  0  0  0  0  0  0  0
   -3.0462   -0.8513   -0.7716 H   0  0  0  0  0  0  0  0  0  0  0  0
   -0.9829   -0.5625   -2.6871 H   0  0  0  0  0  0  0  0  0  0  0  0
   -0.8853   -2.0675   -0.4346 H   0  0  0  0  0  0  0  0  0  0  0  0
   -2.1420   -1.4387    1.3293 H   0  0  0  0  0  0  0  0  0  0  0  0
    0.4203    0.6755   -0.0417 H   0  0  0  0  0  0  0  0  0  0  0  0
    1.6495   -0.0528   -1.8747 H   0  0  0  0  0  0  0  0  0  0  0  0
    1.3297   -1.2142    1.3873 H   0  0  0  0  0  0  0  0  0  0  0  0
    1.5915   -2.1526   -0.0967 H   0  0  0  0  0  0  0  0  0  0  0  0
    5.2869    0.2623    0.3355 H   0  0  0  0  0  0  0  0  0  0  0  0
    3.9170   -0.0375    3.1946 H   0  0  0  0  0  0  0  0  0  0  0  0
  1  2  2  0
  2  3  1  0
  2  4  1  0
  4  5  1  0
  4  6  1  0
  6  7  1  0
  6  8  1  0
  8  9  1  0
  8 10  1  0
 10 11  1  0
 10 12  1  0
 12 13  1  0
 13 14  1  0
 14 15  2  0
 14 16  1  0
 14 17  1  0
  3 18  1  0
  4 19  1  6
  5 20  1  0
  6 21  1  1
  7 22  1  0
  8 23  1  6
  9 24  1  0
 10 25  1  1
 11 26  1  0
 12 27  1  0
 12 28  1  0
 16 29  1  0
 17 30  1  0
M  END
