
     RDKit          3D

 27 27  0  0  0  0  0  0  0  0999 V2000
    0.5556    2.3136    2.6050 O   0  0  0  0  0  0  0  0  0  0  0  0
    0.0515    1.5300    1.8037 C   0  0  0  0  0  0  0  0  0  0  0  0
    0.7045    0.4210    1.3944 O   0  0  0  0  0  0  0  0  0  0  0  0
    0.0051   -0.7421    0.8831 C   0  0  2  0  0  0  0  0  0  0  0  0
    1.0014   -1.5464    0.0414 C   0  0  0  0  0  0  0  0  0  0  0  0
    1.4118   -0.7774   -1.0846 O   0  0  0  0  0  0  0  0  0  0  0  0
    2.6848   -1.3191   -1.8833 P   0  0  0  0  0  5  0  0  0  0  0  0
    2.6396   -2.7330   -2.3439 O   0  0  0  0  0  0  0  0  0  0  0  0
    2.8369   -0.2998   -3.1025 O   0  0  0  0  0  0  0  0  0  0  0  0
    3.9426   -0.9128   -0.9952 O   0  0  0  0  0  0  0  0  0  0  0  0
   -1.2589   -0.4046    0.0952 C   0  0  1  0  0  0  0  0  0  0  0  0
   -2.0296   -1.5856   -0.1389 O   0  0  0  0  0  0  0  0  0  0  0  0
   -2.0894    0.5838    0.8998 C   0  0  2  0  0  0  0  0  0  0  0  0
   -3.2810    0.8915    0.1555 O   0  0  0  0  0  0  0  0  0  0  0  0
   -1.2785    1.8423    1.1358 C   0  0  1  0  0  0  0  0  0  0  0  0
   -2.0775    2.7445    1.9105 O   0  0  0  0  0  0  0  0  0  0  0  0
   -0.2558   -1.3595    1.7524 H   0  0  0  0  0  0  0  0  0  0  0  0
    0.5559   -2.4822   -0.3109 H   0  0  0  0  0  0  0  0  0  0  0  0
    1.8851   -1.7809    0.6455 H   0  0  0  0  0  0  0  0  0  0  0  0
    2.5066   -0.7175   -3.9206 H   0  0  0  0  0  0  0  0  0  0  0  0
    4.0467    0.0547   -0.9622 H   0  0  0  0  0  0  0  0  0  0  0  0
   -1.0228    0.0283   -0.8843 H   0  0  0  0  0  0  0  0  0  0  0  0
   -2.9023   -1.2674   -0.4515 H   0  0  0  0  0  0  0  0  0  0  0  0
   -2.4267    0.1381    1.8437 H   0  0  0  0  0  0  0  0  0  0  0  0
   -3.6886    1.6493    0.6245 H   0  0  0  0  0  0  0  0  0  0  0  0
   -1.0660    2.3520    0.1888 H   0  0  0  0  0  0  0  0  0  0  0  0
   -1.4511    3.3791    2.3166 H   0  0  0  0  0  0  0  0  0  0  0  0
  1  2  2  0
  2  3  1  0
  3  4  1  0
  4  5  1  0
  5  6  1  0
  6  7  1  0
  7  8  2  0
  7  9  1  0
  7 10  1  0
  4 11  1  0
 11 12  1  0
 11 13  1  0
 13 14  1  0
 13 15  1  0
 15 16  1  0
 15  2  1  0
  4 17  1  1
  5 18  1  0
  5 19  1  0
  9 20  1  0
 10 21  1  0
 11 22  1  6
 12 23  1  0
 13 24  1  1
 14 25  1  0
 15 26  1  6
 16 27  1  0
M  END
