
     RDKit          3D

 27 26  0  0  0  0  0  0  0  0999 V2000
    4.2290   -0.2458    1.6430 O   0  0  0  0  0  0  0  0  0  0  0  0
    3.9436    0.3144    0.6027 C   0  0  0  0  0  0  0  0  0  0  0  0
    4.1541    1.6184    0.3912 O   0  0  0  0  0  0  0  0  0  0  0  0
    3.3156   -0.3886   -0.6016 C   0  0  0  0  0  0  0  0  0  0  0  0
    3.7805   -0.2297   -1.7248 O   0  0  0  0  0  0  0  0  0  0  0  0
    2.1004   -1.2256   -0.3106 C   0  0  0  0  0  0  0  0  0  0  0  0
    0.8635   -0.3320   -0.3078 C   0  0  2  0  0  0  0  0  0  0  0  0
    0.9662    0.5408    0.8229 O   0  0  0  0  0  0  0  0  0  0  0  0
   -0.4457   -1.1559   -0.2425 C   0  0  2  0  0  0  0  0  0  0  0  0
   -0.4465   -2.1689   -1.2480 O   0  0  0  0  0  0  0  0  0  0  0  0
   -1.6875   -0.2708   -0.4281 C   0  0  0  0  0  0  0  0  0  0  0  0
   -1.7488    0.7330    0.5728 O   0  0  0  0  0  0  0  0  0  0  0  0
   -3.1893    1.2974    0.9841 P   0  0  0  0  0  5  0  0  0  0  0  0
   -3.1959    2.4007    1.9820 O   0  0  0  0  0  0  0  0  0  0  0  0
   -3.8860    1.7097   -0.3892 O   0  0  0  0  0  0  0  0  0  0  0  0
   -4.0361    0.0298    1.4504 O   0  0  0  0  0  0  0  0  0  0  0  0
    4.5457    1.9419    1.2268 H   0  0  0  0  0  0  0  0  0  0  0  0
    2.0470   -1.9977   -1.0855 H   0  0  0  0  0  0  0  0  0  0  0  0
    2.2368   -1.7335    0.6504 H   0  0  0  0  0  0  0  0  0  0  0  0
    0.8630    0.2898   -1.2117 H   0  0  0  0  0  0  0  0  0  0  0  0
    0.1047    0.9953    0.9227 H   0  0  0  0  0  0  0  0  0  0  0  0
   -0.5007   -1.6400    0.7410 H   0  0  0  0  0  0  0  0  0  0  0  0
   -1.1952   -2.7657   -1.0676 H   0  0  0  0  0  0  0  0  0  0  0  0
   -2.5848   -0.8999   -0.4069 H   0  0  0  0  0  0  0  0  0  0  0  0
   -1.6653    0.2134   -1.4110 H   0  0  0  0  0  0  0  0  0  0  0  0
   -3.7808    2.6653   -0.5581 H   0  0  0  0  0  0  0  0  0  0  0  0
   -4.7874    0.3044    2.0078 H   0  0  0  0  0  0  0  0  0  0  0  0
  1  2  2  0
  2  3  1  0
  2  4  1  0
  4  5  2  0
  4  6  1  0
  6  7  1  0
  7  8  1  0
  7  9  1  0
  9 10  1  0
  9 11  1  0
 11 12  1  0
 12 13  1  0
 13 14  2  0
 13 15  1  0
 13 16  1  0
  3 17  1  0
  6 18  1  0
  6 19  1  0
  7 20  1  6
  8 21  1  0
  9 22  1  1
 10 23  1  0
 11 24  1  0
 11 25  1  0
 15 26  1  0
 16 27  1  0
M  END
