
     RDKit          3D

  4  3  0  0  0  0  0  0  0  0999 V2000
   -0.0122    0.0019    0.0001 C   0  0  0  0  0  0  0  0  0  0  0  0
    1.1977   -0.1876   -0.0060 O   0  0  0  0  0  0  0  0  0  0  0  0
   -0.7369   -0.8278    0.0008 H   0  0  0  0  0  0  0  0  0  0  0  0
   -0.4486    1.0135    0.0051 H   0  0  0  0  0  0  0  0  0  0  0  0
  1  2  2  0
  1  3  1  0
  1  4  1  0
M  END
