
     RDKit          3D

 21 20  0  0  0  0  0  0  0  0999 V2000
   -2.1503    0.2371    0.5521 C   0  0  0  0  0  0  0  0  0  0  0  0
   -1.3753   -0.5751   -0.4774 C   0  0  0  0  0  0  0  0  0  0  0  0
   -1.6861   -0.0366   -1.7678 O   0  0  0  0  0  0  0  0  0  0  0  0
    0.1524   -0.6071   -0.3051 C   0  0  0  0  0  0  0  0  0  0  0  0
    0.4907   -1.5581    0.8178 C   0  0  0  0  0  0  0  0  0  0  0  0
    0.8787   -2.7071    0.6180 O   0  0  0  0  0  0  0  0  0  0  0  0
    0.8168    0.7608   -0.0894 C   0  0  0  0  0  0  0  0  0  0  0  0
    2.3322    0.6978   -0.2622 C   0  0  0  0  0  0  0  0  0  0  0  0
    0.5410    1.2596    1.2184 O   0  0  0  0  0  0  0  0  0  0  0  0
   -3.2269    0.1231    0.3806 H   0  0  0  0  0  0  0  0  0  0  0  0
   -1.9343   -0.0867    1.5739 H   0  0  0  0  0  0  0  0  0  0  0  0
   -1.9463    1.3087    0.4586 H   0  0  0  0  0  0  0  0  0  0  0  0
   -1.7681   -1.5998   -0.4584 H   0  0  0  0  0  0  0  0  0  0  0  0
   -1.4734   -0.7196   -2.4286 H   0  0  0  0  0  0  0  0  0  0  0  0
    0.5725   -1.0350   -1.2263 H   0  0  0  0  0  0  0  0  0  0  0  0
    0.3223   -1.1925    1.8453 H   0  0  0  0  0  0  0  0  0  0  0  0
    0.4129    1.4789   -0.8127 H   0  0  0  0  0  0  0  0  0  0  0  0
    2.6053    0.3263   -1.2545 H   0  0  0  0  0  0  0  0  0  0  0  0
    2.7708    1.6935   -0.1337 H   0  0  0  0  0  0  0  0  0  0  0  0
    2.7937    0.0556    0.4955 H   0  0  0  0  0  0  0  0  0  0  0  0
    0.8712    2.1761    1.2560 H   0  0  0  0  0  0  0  0  0  0  0  0
  1  2  1  0
  2  3  1  0
  2  4  1  0
  4  5  1  0
  5  6  2  0
  4  7  1  0
  7  8  1  0
  7  9  1  0
  1 10  1  0
  1 11  1  0
  1 12  1  0
  2 13  1  0
  3 14  1  0
  4 15  1  0
  5 16  1  0
  7 17  1  0
  8 18  1  0
  8 19  1  0
  8 20  1  0
  9 21  1  0
M  END
