
     RDKit          3D

 15 14  0  0  0  0  0  0  0  0999 V2000
   -1.4951   -0.1537    0.8011 C   0  0  0  0  0  0  0  0  0  0  0  0
   -0.7205   -0.4385   -0.4810 C   0  0  0  0  0  0  0  0  0  0  0  0
   -1.5595   -0.1227   -1.5969 O   0  0  0  0  0  0  0  0  0  0  0  0
    0.5679    0.3725   -0.5908 C   0  0  0  0  0  0  0  0  0  0  0  0
    1.6463   -0.1465    0.3163 C   0  0  0  0  0  0  0  0  0  0  0  0
    1.6146   -1.1408    1.0195 O   0  0  0  0  0  0  0  0  0  0  0  0
    2.7447    0.6345    0.2862 O   0  0  0  0  0  0  0  0  0  0  0  0
   -0.9220   -0.4242    1.6922 H   0  0  0  0  0  0  0  0  0  0  0  0
   -2.4343   -0.7176    0.8093 H   0  0  0  0  0  0  0  0  0  0  0  0
   -1.7666    0.9056    0.8694 H   0  0  0  0  0  0  0  0  0  0  0  0
   -0.5051   -1.5109   -0.5424 H   0  0  0  0  0  0  0  0  0  0  0  0
   -1.8588    0.7980   -1.5025 H   0  0  0  0  0  0  0  0  0  0  0  0
    0.3733    1.4253   -0.3559 H   0  0  0  0  0  0  0  0  0  0  0  0
    0.9426    0.3271   -1.6203 H   0  0  0  0  0  0  0  0  0  0  0  0
    3.3724    0.1919    0.8958 H   0  0  0  0  0  0  0  0  0  0  0  0
  1  2  1  0
  2  3  1  0
  2  4  1  0
  4  5  1  0
  5  6  2  0
  5  7  1  0
  1  8  1  0
  1  9  1  0
  1 10  1  0
  2 11  1  0
  3 12  1  0
  4 13  1  0
  4 14  1  0
  7 15  1  0
M  END
