
     RDKit          3D

 22 21  0  0  0  0  0  0  0  0999 V2000
   -1.9078   -1.7640    1.6014 O   0  0  0  0  0  0  0  0  0  0  0  0
   -0.8519   -1.7923    0.9748 C   0  0  0  0  0  0  0  0  0  0  0  0
   -0.6564   -1.1447   -0.3805 C   0  0  0  0  0  0  0  0  0  0  0  0
   -1.8637   -0.2863   -0.7564 C   0  0  0  0  0  0  0  0  0  0  0  0
   -3.0041   -1.1158   -0.9723 O   0  0  0  0  0  0  0  0  0  0  0  0
    0.6753   -0.3759   -0.3921 C   0  0  0  0  0  0  0  0  0  0  0  0
    0.9960    0.0086   -1.7300 O   0  0  0  0  0  0  0  0  0  0  0  0
    0.6790    0.8862    0.4778 C   0  0  0  0  0  0  0  0  0  0  0  0
    2.0582    1.5366    0.5300 C   0  0  0  0  0  0  0  0  0  0  0  0
    2.0260    2.6421    1.4245 O   0  0  0  0  0  0  0  0  0  0  0  0
    0.0092   -2.3647    1.3619 H   0  0  0  0  0  0  0  0  0  0  0  0
   -0.5908   -1.9743   -1.0972 H   0  0  0  0  0  0  0  0  0  0  0  0
   -1.6806    0.2559   -1.6891 H   0  0  0  0  0  0  0  0  0  0  0  0
   -2.1187    0.4443    0.0186 H   0  0  0  0  0  0  0  0  0  0  0  0
   -3.2649   -1.4562   -0.0915 H   0  0  0  0  0  0  0  0  0  0  0  0
    1.4793   -1.0403   -0.0510 H   0  0  0  0  0  0  0  0  0  0  0  0
    1.0402   -0.7919   -2.2836 H   0  0  0  0  0  0  0  0  0  0  0  0
    0.3533    0.6558    1.4990 H   0  0  0  0  0  0  0  0  0  0  0  0
   -0.0267    1.6290    0.0857 H   0  0  0  0  0  0  0  0  0  0  0  0
    2.8063    0.8298    0.9021 H   0  0  0  0  0  0  0  0  0  0  0  0
    2.3808    1.8935   -0.4531 H   0  0  0  0  0  0  0  0  0  0  0  0
    1.4619    3.3246    1.0209 H   0  0  0  0  0  0  0  0  0  0  0  0
  1  2  2  0
  2  3  1  0
  3  4  1  0
  4  5  1  0
  3  6  1  0
  6  7  1  0
  6  8  1  0
  8  9  1  0
  9 10  1  0
  2 11  1  0
  3 12  1  0
  4 13  1  0
  4 14  1  0
  5 15  1  0
  6 16  1  0
  7 17  1  0
  8 18  1  0
  8 19  1  0
  9 20  1  0
  9 21  1  0
 10 22  1  0
M  END
