
     RDKit          3D

 19 18  0  0  0  0  0  0  0  0999 V2000
    1.1205    1.8203    0.6621 O   0  0  0  0  0  0  0  0  0  0  0  0
    1.5461    1.1335   -0.2501 C   0  0  0  0  0  0  0  0  0  0  0  0
    2.3580    1.6626   -1.1858 O   0  0  0  0  0  0  0  0  0  0  0  0
    1.2726   -0.3220   -0.5021 C   0  0  0  0  0  0  0  0  0  0  0  0
    0.3916   -0.9507    0.5808 C   0  0  0  0  0  0  0  0  0  0  0  0
    0.7392   -2.3392    0.6881 O   0  0  0  0  0  0  0  0  0  0  0  0
   -1.1084   -0.8960    0.2710 C   0  0  0  0  0  0  0  0  0  0  0  0
   -1.6983    0.5056    0.2707 C   0  0  0  0  0  0  0  0  0  0  0  0
   -3.0998    0.4144    0.0435 O   0  0  0  0  0  0  0  0  0  0  0  0
    2.4650    2.6011   -0.9232 H   0  0  0  0  0  0  0  0  0  0  0  0
    2.2430   -0.8326   -0.5305 H   0  0  0  0  0  0  0  0  0  0  0  0
    0.8100   -0.4320   -1.4892 H   0  0  0  0  0  0  0  0  0  0  0  0
    0.5761   -0.5039    1.5646 H   0  0  0  0  0  0  0  0  0  0  0  0
    1.6126   -2.3961    1.1129 H   0  0  0  0  0  0  0  0  0  0  0  0
   -1.3145   -1.3863   -0.6901 H   0  0  0  0  0  0  0  0  0  0  0  0
   -1.6498   -1.5117    1.0025 H   0  0  0  0  0  0  0  0  0  0  0  0
   -1.5359    0.9976    1.2346 H   0  0  0  0  0  0  0  0  0  0  0  0
   -1.2709    1.1183   -0.5275 H   0  0  0  0  0  0  0  0  0  0  0  0
   -3.4570    1.3171    0.1030 H   0  0  0  0  0  0  0  0  0  0  0  0
  1  2  2  0
  2  3  1  0
  2  4  1  0
  4  5  1  0
  5  6  1  0
  5  7  1  0
  7  8  1  0
  8  9  1  0
  3 10  1  0
  4 11  1  0
  4 12  1  0
  5 13  1  0
  6 14  1  0
  7 15  1  0
  7 16  1  0
  8 17  1  0
  8 18  1  0
  9 19  1  0
M  END
