
     RDKit          3D

 22 21  0  0  0  0  0  0  0  0999 V2000
   -2.8612   -0.5826   -0.4612 C   0  0  0  0  0  0  0  0  0  0  0  0
   -1.6934    0.3963   -0.4873 C   0  0  0  0  0  0  0  0  0  0  0  0
   -2.0389    1.5570    0.2642 O   0  0  0  0  0  0  0  0  0  0  0  0
   -0.4301   -0.2360    0.1078 C   0  0  0  0  0  0  0  0  0  0  0  0
    0.7595    0.7315    0.1751 C   0  0  0  0  0  0  0  0  0  0  0  0
    1.1398    1.1475   -1.1365 O   0  0  0  0  0  0  0  0  0  0  0  0
    1.9813    0.1652    0.8967 C   0  0  0  0  0  0  0  0  0  0  0  0
    2.5457   -1.0727    0.2579 C   0  0  0  0  0  0  0  0  0  0  0  0
    1.9904   -2.1538    0.1464 O   0  0  0  0  0  0  0  0  0  0  0  0
    3.8138   -0.9147   -0.1697 O   0  0  0  0  0  0  0  0  0  0  0  0
   -3.7569   -0.1222   -0.8921 H   0  0  0  0  0  0  0  0  0  0  0  0
   -3.1157   -0.8620    0.5671 H   0  0  0  0  0  0  0  0  0  0  0  0
   -2.6319   -1.4907   -1.0269 H   0  0  0  0  0  0  0  0  0  0  0  0
   -1.5086    0.7094   -1.5206 H   0  0  0  0  0  0  0  0  0  0  0  0
   -2.8956    1.8793   -0.0671 H   0  0  0  0  0  0  0  0  0  0  0  0
   -0.1770   -1.1046   -0.5098 H   0  0  0  0  0  0  0  0  0  0  0  0
   -0.6452   -0.5909    1.1235 H   0  0  0  0  0  0  0  0  0  0  0  0
    0.4641    1.6347    0.7232 H   0  0  0  0  0  0  0  0  0  0  0  0
    0.5064    1.8357   -1.4081 H   0  0  0  0  0  0  0  0  0  0  0  0
    1.7466   -0.0756    1.9396 H   0  0  0  0  0  0  0  0  0  0  0  0
    2.7699    0.9281    0.9160 H   0  0  0  0  0  0  0  0  0  0  0  0
    4.0369   -1.7790   -0.5723 H   0  0  0  0  0  0  0  0  0  0  0  0
  1  2  1  0
  2  3  1  0
  2  4  1  0
  4  5  1  0
  5  6  1  0
  5  7  1  0
  7  8  1  0
  8  9  2  0
  8 10  1  0
  1 11  1  0
  1 12  1  0
  1 13  1  0
  2 14  1  0
  3 15  1  0
  4 16  1  0
  4 17  1  0
  5 18  1  0
  6 19  1  0
  7 20  1  0
  7 21  1  0
 10 22  1  0
M  END
