
     RDKit          3D

 16 15  0  0  0  0  0  0  0  0999 V2000
   -1.0593    1.1532    0.6965 C   0  0  0  0  0  0  0  0  0  0  0  0
   -0.9549   -0.2961    0.2457 C   0  0  0  0  0  0  0  0  0  0  0  0
   -2.2029   -0.6396   -0.3649 O   0  0  0  0  0  0  0  0  0  0  0  0
    0.1706   -0.5640   -0.7610 C   0  0  0  0  0  0  0  0  0  0  0  0
    1.5731   -0.4121   -0.1867 C   0  0  0  0  0  0  0  0  0  0  0  0
    1.8981    0.9574   -0.0151 O   0  0  0  0  0  0  0  0  0  0  0  0
   -1.1329    1.8276   -0.1636 H   0  0  0  0  0  0  0  0  0  0  0  0
   -0.2048    1.4526    1.3087 H   0  0  0  0  0  0  0  0  0  0  0  0
   -1.9681    1.3032    1.2902 H   0  0  0  0  0  0  0  0  0  0  0  0
   -0.8376   -0.9398    1.1248 H   0  0  0  0  0  0  0  0  0  0  0  0
   -2.1676   -1.5815   -0.6019 H   0  0  0  0  0  0  0  0  0  0  0  0
    0.0433    0.0958   -1.6286 H   0  0  0  0  0  0  0  0  0  0  0  0
    0.0586   -1.5884   -1.1384 H   0  0  0  0  0  0  0  0  0  0  0  0
    1.6657   -0.9255    0.7755 H   0  0  0  0  0  0  0  0  0  0  0  0
    2.3014   -0.8429   -0.8816 H   0  0  0  0  0  0  0  0  0  0  0  0
    2.8172    1.0002    0.3006 H   0  0  0  0  0  0  0  0  0  0  0  0
  1  2  1  0
  2  3  1  0
  2  4  1  0
  4  5  1  0
  5  6  1  0
  1  7  1  0
  1  8  1  0
  1  9  1  0
  2 10  1  0
  3 11  1  0
  4 12  1  0
  4 13  1  0
  5 14  1  0
  5 15  1  0
  6 16  1  0
M  END
