
     RDKit          3D

 11 10  0  0  0  0  0  0  0  0999 V2000
   -1.3494    1.6192    0.5825 O   0  0  0  0  0  0  0  0  0  0  0  0
   -1.5766    0.4849    0.1741 C   0  0  0  0  0  0  0  0  0  0  0  0
   -0.5248   -0.4654   -0.3259 C   0  0  0  0  0  0  0  0  0  0  0  0
    0.8621    0.1432   -0.2676 C   0  0  0  0  0  0  0  0  0  0  0  0
    1.8012   -0.8093   -0.7541 O   0  0  0  0  0  0  0  0  0  0  0  0
   -2.6082    0.0933    0.1544 H   0  0  0  0  0  0  0  0  0  0  0  0
   -0.7747   -0.7490   -1.3540 H   0  0  0  0  0  0  0  0  0  0  0  0
   -0.5672   -1.3782    0.2783 H   0  0  0  0  0  0  0  0  0  0  0  0
    0.9249    1.0432   -0.8883 H   0  0  0  0  0  0  0  0  0  0  0  0
    1.1344    0.4080    0.7595 H   0  0  0  0  0  0  0  0  0  0  0  0
    2.6783   -0.3899   -0.7040 H   0  0  0  0  0  0  0  0  0  0  0  0
  1  2  2  0
  2  3  1  0
  3  4  1  0
  4  5  1  0
  2  6  1  0
  3  7  1  0
  3  8  1  0
  4  9  1  0
  4 10  1  0
  5 11  1  0
M  END
